@<TRIPOS>MOLECULE
Cpptraj Generated mol2 file.
11880 12402   540     0     0
SMALL
USER_CHARGES


@<TRIPOS>ATOM
      1 C1         13.4400   27.5800   59.1700 c          1 PET      0.825469
      2 CA1        14.8100   27.5700   59.7800 ca         1 PET     -0.163574
      3 CA2        15.6500   26.4900   59.6200 ca         1 PET     -0.108363
      4 CA3        16.9800   26.5700   60.1800 ca         1 PET     -0.078542
      5 CA4        15.2300   28.6600   60.5900 ca         1 PET     -0.078542
      6 CA5        16.5800   28.7900   61.0900 ca         1 PET     -0.108363
      7 CA6        17.4100   27.6500   60.9000 ca         1 PET     -0.163574
      8 C2         18.8300   27.6600   61.4400 c          1 PET      0.825469
      9 C3         21.0700   26.4900   61.4400 c3         1 PET      0.058627
     10 C4         21.1700   25.0000   61.7300 c3         1 PET      0.058627
     11 O1         13.1600   26.4700   58.4300 os         1 PET     -0.411922
     12 O2         12.6600   28.5300   59.3500 o          1 PET     -0.591068
     13 O3         19.1800   28.5000   62.2500 o          1 PET     -0.591068
     14 O4         19.7300   26.7100   60.9000 os         1 PET     -0.411922
     15 HA2        15.2400   25.6200   59.1200 ha         1 PET      0.129090
     16 HA3        17.6800   25.7600   60.0200 ha         1 PET      0.145907
     17 HA4        14.5600   29.5000   60.7400 ha         1 PET      0.145907
     18 HA5        16.9300   29.5600   61.7600 ha         1 PET      0.129090
     19 H31        21.8900   26.9000   60.8400 h1         1 PET      0.097188
     20 H32        21.1300   27.0400   62.3900 h1         1 PET      0.097188
     21 H41        20.7900   24.4200   60.8900 h1         1 PET      0.097188
     22 H42        20.5700   24.7000   62.6000 h1         1 PET      0.097188
     23 C1         22.9300   23.4000   62.2000 c          2 PET      0.825469
     24 CA1        24.4400   23.2000   62.1000 ca         2 PET     -0.163574
     25 CA2        24.9900   21.9500   62.2600 ca         2 PET     -0.108363
     26 CA3        26.3300   21.7000   62.1100 ca         2 PET     -0.078542
     27 CA4        25.3100   24.2500   61.7300 ca         2 PET     -0.078542
     28 CA5        26.6900   23.9600   61.4500 ca         2 PET     -0.108363
     29 CA6        27.2100   22.7200   61.7900 ca         2 PET     -0.163574
     30 C2         28.6600   22.4200   61.7100 c          2 PET      0.825469
     31 C3         30.8800   23.4000   61.5100 c3         2 PET      0.058627
     32 C4         31.5800   22.7700   62.7800 c3         2 PET      0.058627
     33 O1         22.5600   24.6900   61.9800 os         2 PET     -0.411922
     34 O2         22.1700   22.4700   62.3900 o          2 PET     -0.591068
     35 O3         29.0900   21.2800   61.7200 o          2 PET     -0.591068
     36 O4         29.4600   23.5300   61.5700 os         2 PET     -0.411922
     37 HA2        24.3400   21.1200   62.5500 ha         2 PET      0.129090
     38 HA3        26.5800   20.6500   62.2300 ha         2 PET      0.145907
     39 HA4        24.8900   25.2500   61.6500 ha         2 PET      0.145907
     40 HA5        27.3700   24.7400   61.1200 ha         2 PET      0.129090
     41 H31        31.1700   22.7200   60.7100 h1         2 PET      0.097188
     42 H32        31.2900   24.4100   61.3600 h1         2 PET      0.097188
     43 H41        31.7300   21.6900   62.6100 h1         2 PET      0.097188
     44 H42        30.9100   22.7200   63.6500 h1         2 PET      0.097188
     45 C1         32.7300   24.9100   63.3800 c          3 PET      0.825469
     46 CA1        34.0400   25.6400   63.3100 ca         3 PET     -0.163574
     47 CA2        34.0700   27.0500   63.6600 ca         3 PET     -0.108363
     48 CA3        35.2400   27.7100   63.8300 ca         3 PET     -0.078542
     49 CA4        35.3000   24.9700   63.0600 ca         3 PET     -0.078542
     50 CA5        36.5200   25.7200   63.1700 ca         3 PET     -0.108363
     51 CA6        36.4900   27.0700   63.6000 ca         3 PET     -0.163574
     52 C2         37.7200   27.8500   63.9400 c          3 PET      0.825469
     53 C3         40.1300   27.7900   63.8100 c3         3 PET      0.058627
     54 C4         40.5200   28.9900   62.8900 c3         3 PET      0.058627
     55 O1         32.7800   23.5600   63.0500 os         3 PET     -0.411922
     56 O2         31.6800   25.4300   63.7400 o          3 PET     -0.591068
     57 O3         37.7000   28.9100   64.5500 o          3 PET     -0.591068
     58 O4         38.8800   27.1800   63.4700 os         3 PET     -0.411922
     59 HA2        33.1000   27.5000   63.8700 ha         3 PET      0.129090
     60 HA3        35.1600   28.7300   64.1900 ha         3 PET      0.145907
     61 HA4        35.4200   23.9100   62.8500 ha         3 PET      0.145907
     62 HA5        37.4700   25.2000   63.1300 ha         3 PET      0.129090
     63 H31        40.1400   28.1500   64.8500 h1         3 PET      0.097188
     64 H32        40.9900   27.1100   63.6900 h1         3 PET      0.097188
     65 H41        40.1100   29.9500   63.2300 h1         3 PET      0.097188
     66 H42        40.2300   28.8100   61.8400 h1         3 PET      0.097188
     67 C1         42.7100   29.9500   63.5500 c          4 PET      0.825469
     68 CA1        44.1400   29.5000   63.6800 ca         4 PET     -0.163574
     69 CA2        45.0600   30.3600   64.2600 ca         4 PET     -0.108363
     70 CA3        46.4500   30.0500   64.4100 ca         4 PET     -0.078542
     71 CA4        44.6200   28.2200   63.3300 ca         4 PET     -0.078542
     72 CA5        45.9200   27.8700   63.4600 ca         4 PET     -0.108363
     73 CA6        46.8700   28.7700   64.0400 ca         4 PET     -0.163574
     74 C2         48.3100   28.3500   64.1700 c          4 PET      0.825469
     75 C3         50.6500   29.1500   64.0700 c3         4 PET      0.058627
     76 C4         51.3200   30.5100   64.3600 c3         4 PET      0.058627
     77 O1         41.9700   29.1200   62.7700 os         4 PET     -0.411922
     78 O2         42.2800   30.9800   64.1100 o          4 PET     -0.591068
     79 O3         48.6200   27.2000   64.3600 o          4 PET     -0.591068
     80 O4         49.2300   29.3800   64.0600 os         4 PET     -0.411922
     81 HA2        44.6800   31.3200   64.6100 ha         4 PET      0.129090
     82 HA3        47.1700   30.7000   64.8900 ha         4 PET      0.145907
     83 HA4        43.9400   27.5000   62.8900 ha         4 PET      0.145907
     84 HA5        46.3100   26.9000   63.1600 ha         4 PET      0.129090
     85 H31        50.9000   28.4600   64.8900 h1         4 PET      0.097188
     86 H32        51.0400   28.7700   63.1200 h1         4 PET      0.097188
     87 H41        52.3500   30.4000   63.9900 h1         4 PET      0.097188
     88 H42        51.5400   30.6300   65.4300 h1         4 PET      0.097188
     89 C1         49.6500   32.3000   64.5200 c          5 PET      0.825469
     90 CA1        48.5500   32.8800   63.6800 ca         5 PET     -0.163574
     91 CA2        47.4000   33.3800   64.3700 ca         5 PET     -0.108363
     92 CA3        46.3400   33.8600   63.6800 ca         5 PET     -0.078542
     93 CA4        48.5500   32.8000   62.2900 ca         5 PET     -0.078542
     94 CA5        47.3500   33.1600   61.6000 ca         5 PET     -0.108363
     95 CA6        46.2300   33.6100   62.3100 ca         5 PET     -0.163574
     96 C2         44.9700   34.0100   61.5800 c          5 PET      0.825469
     97 C3         44.2200   34.6800   59.3500 c3         5 PET      0.058627
     98 C4         44.7700   34.7600   57.9200 c3         5 PET      0.058627
     99 O1         50.6000   31.6200   63.7800 os         5 PET     -0.411922
    100 O2         49.5900   32.2800   65.7600 o          5 PET     -0.591068
    101 O3         43.9600   34.5000   62.1100 o          5 PET     -0.591068
    102 O4         45.1200   33.9700   60.2700 os         5 PET     -0.411922
    103 HA2        47.3500   33.4400   65.4500 ha         5 PET      0.129090
    104 HA3        45.4400   34.1400   64.2200 ha         5 PET      0.145907
    105 HA4        49.4100   32.4300   61.7400 ha         5 PET      0.145907
    106 HA5        47.2800   33.0200   60.5200 ha         5 PET      0.129090
    107 H31        43.2300   34.2200   59.3500 h1         5 PET      0.097188
    108 H32        43.9900   35.6400   59.8300 h1         5 PET      0.097188
    109 H41        44.5300   35.6600   57.3400 h1         5 PET      0.097188
    110 H42        44.3100   33.9600   57.3400 h1         5 PET      0.097188
    111 C1         46.9900   35.4700   58.6000 c          6 PET      0.825469
    112 CA1        48.4600   35.0400   58.8100 ca         6 PET     -0.163574
    113 CA2        48.9400   34.0000   57.9700 ca         6 PET     -0.108363
    114 CA3        50.3500   33.5500   58.0700 ca         6 PET     -0.078542
    115 CA4        49.3000   35.6000   59.7800 ca         6 PET     -0.078542
    116 CA5        50.6600   35.3400   59.8000 ca         6 PET     -0.108363
    117 CA6        51.2100   34.2500   58.9700 ca         6 PET     -0.163574
    118 C2         52.6700   34.0800   58.9000 c          6 PET      0.825469
    119 C3         54.5700   33.7700   57.4200 c3         6 PET      0.058627
    120 C4         54.7200   33.4200   55.9000 c3         6 PET      0.058627
    121 O1         46.1900   34.5600   57.9900 os         6 PET     -0.411922
    122 O2         46.6800   36.5600   58.9400 o          6 PET     -0.591068
    123 O3         53.3700   34.1500   59.8300 o          6 PET     -0.591068
    124 O4         53.1500   33.9800   57.6500 os         6 PET     -0.411922
    125 HA2        48.2400   33.4900   57.3100 ha         6 PET      0.129090
    126 HA3        50.7900   32.7400   57.5000 ha         6 PET      0.145907
    127 HA4        48.9200   36.3800   60.4300 ha         6 PET      0.145907
    128 HA5        51.2600   35.9400   60.4800 ha         6 PET      0.129090
    129 H31        54.9700   34.7200   57.7900 h1         6 PET      0.097188
    130 H32        55.0300   32.9300   57.9500 h1         6 PET      0.097188
    131 H41        54.3500   34.2600   55.3100 h1         6 PET      0.097188
    132 H42        54.0800   32.5700   55.6500 h1         6 PET      0.097188
    133 C1         56.9200   34.2600   55.2800 c          7 PET      0.825469
    134 CA1        58.3300   33.8900   54.9400 ca         7 PET     -0.163574
    135 CA2        58.6500   32.5400   54.7800 ca         7 PET     -0.108363
    136 CA3        60.0600   32.2200   54.5900 ca         7 PET     -0.078542
    137 CA4        59.1900   34.9200   54.6600 ca         7 PET     -0.078542
    138 CA5        60.4500   34.5900   54.3900 ca         7 PET     -0.108363
    139 CA6        60.9100   33.2800   54.2300 ca         7 PET     -0.163574
    140 C2         62.3600   33.0300   53.7500 c          7 PET      0.825469
    141 C3         64.2400   34.1700   52.5400 c3         7 PET      0.058627
    142 C4         65.1700   34.3800   53.8300 c3         7 PET      0.058627
    143 O1         56.0900   33.1800   55.4800 os         7 PET     -0.411922
    144 O2         56.5000   35.3900   55.3100 o          7 PET     -0.591068
    145 O3         63.0400   32.0300   54.0100 o          7 PET     -0.591068
    146 O4         62.9000   34.0800   53.0800 os         7 PET     -0.411922
    147 HA2        57.9200   31.7300   54.7800 ha         7 PET      0.129090
    148 HA3        60.2900   31.1800   54.3700 ha         7 PET      0.145907
    149 HA4        58.8900   35.9600   54.7600 ha         7 PET      0.145907
    150 HA5        61.1100   35.4100   54.1200 ha         7 PET      0.129090
    151 H31        64.5500   33.3100   51.9400 h1         7 PET      0.097188
    152 H32        64.2800   35.1300   51.9900 h1         7 PET      0.097188
    153 H41        65.2500   33.3900   54.2900 h1         7 PET      0.097188
    154 H42        64.6100   35.1300   54.4000 h1         7 PET      0.097188
    155 C1         66.9100   36.1500   53.9300 c          8 PET      0.825469
    156 CA1        68.3500   36.4100   53.5900 ca         8 PET     -0.163574
    157 CA2        69.1200   35.3600   53.0500 ca         8 PET     -0.108363
    158 CA3        70.4200   35.6700   52.5900 ca         8 PET     -0.078542
    159 CA4        68.8800   37.7100   53.7700 ca         8 PET     -0.078542
    160 CA5        70.2000   38.0100   53.3400 ca         8 PET     -0.108363
    161 CA6        70.9700   37.0000   52.7900 ca         8 PET     -0.163574
    162 C2         72.3100   37.3000   52.2400 c          8 PET      0.825469
    163 C3         74.0000   39.1000   51.8100 c3         8 PET      0.058627
    164 C4         74.8600   38.6700   52.9000 c3         8 PET      0.058627
    165 O1         66.5400   34.9200   53.6400 os         8 PET     -0.411922
    166 O2         66.2300   37.0300   54.4000 o          8 PET     -0.591068
    167 O3         73.0500   36.4300   51.7600 o          8 PET     -0.591068
    168 O4         72.6800   38.6500   52.1500 os         8 PET     -0.411922
    169 HA2        68.7500   34.3400   52.9500 ha         8 PET      0.129090
    170 HA3        70.9800   34.8900   52.0800 ha         8 PET      0.145907
    171 HA4        68.2600   38.5500   54.0800 ha         8 PET      0.145907
    172 HA5        70.7100   38.9700   53.3500 ha         8 PET      0.129090
    173 H31        74.1900   38.5700   50.8700 h1         8 PET      0.097188
    174 H32        74.0500   40.1900   51.7400 h1         8 PET      0.097188
    175 H41        75.4500   37.8000   52.5800 h1         8 PET      0.097188
    176 H42        74.2300   38.4000   53.7600 h1         8 PET      0.097188
    177 C1         76.8200   39.9900   52.5000 c          9 PET      0.825469
    178 CA1        77.5800   41.2500   52.9600 ca         9 PET     -0.163574
    179 CA2        77.0800   42.1800   53.8500 ca         9 PET     -0.108363
    180 CA3        77.8100   43.2500   54.4100 ca         9 PET     -0.078542
    181 CA4        78.8900   41.5600   52.4500 ca         9 PET     -0.078542
    182 CA5        79.5300   42.7000   52.9100 ca         9 PET     -0.108363
    183 CA6        79.0400   43.5700   53.9100 ca         9 PET     -0.163574
    184 C2         79.7100   44.8100   54.4700 c          9 PET      0.825469
    185 C3         81.7400   46.1800   54.1200 c3         9 PET      0.058627
    186 C4         82.3300   46.0700   55.5800 c3         9 PET      0.058627
    187 O1         75.7300   39.7600   53.2800 os         9 PET     -0.411922
    188 O2         77.2200   39.2100   51.6200 o          9 PET     -0.591068
    189 O3         79.1900   45.5800   55.2500 o          9 PET     -0.591068
    190 O4         80.9000   45.0400   53.8600 os         9 PET     -0.411922
    191 HA2        76.0400   42.0400   54.1200 ha         9 PET      0.129090
    192 HA3        77.3500   43.8300   55.2100 ha         9 PET      0.145907
    193 HA4        79.2900   41.0100   51.6000 ha         9 PET      0.145907
    194 HA5        80.4100   42.9000   52.3000 ha         9 PET      0.129090
    195 H31        82.5900   46.2500   53.4300 h1         9 PET      0.097188
    196 H32        81.1400   47.1000   54.1700 h1         9 PET      0.097188
    197 H41        81.6900   45.5500   56.3000 h1         9 PET      0.097188
    198 H42        82.3500   47.0700   56.0300 h1         9 PET      0.097188
    199 C1          4.3200   45.5800   56.8000 c         10 PET      0.825469
    200 CA1         5.7300   45.1300   56.6800 ca        10 PET     -0.163574
    201 CA2         6.3300   44.6700   57.9300 ca        10 PET     -0.108363
    202 CA3         7.6700   44.3100   57.9700 ca        10 PET     -0.078542
    203 CA4         6.4900   45.1000   55.4500 ca        10 PET     -0.078542
    204 CA5         7.8200   44.6200   55.5200 ca        10 PET     -0.108363
    205 CA6         8.4500   44.2900   56.7600 ca        10 PET     -0.163574
    206 C2          9.9800   44.2200   56.8300 c         10 PET      0.825469
    207 C3         11.8100   42.9900   57.7200 c3        10 PET      0.058627
    208 C4         12.1300   41.7100   58.5500 c3        10 PET      0.058627
    209 O1          3.6400   45.4200   55.6200 os        10 PET     -0.411922
    210 O2          3.8100   46.1800   57.7200 o         10 PET     -0.591068
    211 O3         10.6900   44.8800   56.0900 o         10 PET     -0.591068
    212 O4         10.3900   43.2400   57.6500 os        10 PET     -0.411922
    213 HA2         5.7700   44.6300   58.8600 ha        10 PET      0.129090
    214 HA3         8.1700   43.9900   58.8800 ha        10 PET      0.145907
    215 HA4         6.0300   45.4400   54.5300 ha        10 PET      0.145907
    216 HA5         8.4800   44.8700   54.6900 ha        10 PET      0.129090
    217 H31        12.2000   42.8500   56.7000 h1        10 PET      0.097188
    218 H32        12.3000   43.8500   58.1900 h1        10 PET      0.097188
    219 H41        11.4400   40.9100   58.2600 h1        10 PET      0.097188
    220 H42        12.0100   41.8200   59.6300 h1        10 PET      0.097188
    221 C1         14.0700   40.0100   58.4300 c         11 PET      0.825469
    222 CA1        15.4400   39.7900   57.8100 ca        11 PET     -0.163574
    223 CA2        15.9200   38.5100   57.6800 ca        11 PET     -0.108363
    224 CA3        17.1800   38.2500   57.1500 ca        11 PET     -0.078542
    225 CA4        16.1000   40.8400   57.2100 ca        11 PET     -0.078542
    226 CA5        17.3500   40.6300   56.6300 ca        11 PET     -0.108363
    227 CA6        17.9100   39.3700   56.6500 ca        11 PET     -0.163574
    228 C2         19.1500   39.1200   55.8600 c         11 PET      0.825469
    229 C3         21.1500   37.6300   55.5600 c3        11 PET      0.058627
    230 C4         22.3300   38.6700   55.5200 c3        11 PET      0.058627
    231 O1         13.5800   41.3200   58.2300 os        11 PET     -0.411922
    232 O2         13.3800   39.1900   59.0500 o         11 PET     -0.591068
    233 O3         19.3400   39.6900   54.7700 o         11 PET     -0.591068
    234 O4         19.9600   38.0700   56.3100 os        11 PET     -0.411922
    235 HA2        15.2400   37.7300   58.0100 ha        11 PET      0.129090
    236 HA3        17.5600   37.2300   57.1000 ha        11 PET      0.145907
    237 HA4        15.7300   41.8600   57.2500 ha        11 PET      0.145907
    238 HA5        17.8600   41.4900   56.2100 ha        11 PET      0.129090
    239 H31        21.4400   36.7100   56.0800 h1        11 PET      0.097188
    240 H32        20.8600   37.4300   54.5200 h1        11 PET      0.097188
    241 H41        22.6700   38.6900   56.5600 h1        11 PET      0.097188
    242 H42        21.9400   39.6500   55.2200 h1        11 PET      0.097188
    243 C1         24.5000   39.0500   54.6000 c         12 PET      0.825469
    244 CA1        25.6900   38.4000   54.0400 ca        12 PET     -0.163574
    245 CA2        26.7500   39.2800   53.6300 ca        12 PET     -0.108363
    246 CA3        27.9000   38.7800   53.0200 ca        12 PET     -0.078542
    247 CA4        25.8900   37.0700   53.7500 ca        12 PET     -0.078542
    248 CA5        27.0500   36.5700   53.2000 ca        12 PET     -0.108363
    249 CA6        28.1100   37.4000   52.8500 ca        12 PET     -0.163574
    250 C2         29.4000   36.8100   52.2300 c         12 PET      0.825469
    251 C3         31.7900   36.8500   52.3700 c3        12 PET      0.058627
    252 C4         31.9300   35.6000   53.2600 c3        12 PET      0.058627
    253 O1         23.4200   38.2300   54.7100 os        12 PET     -0.411922
    254 O2         24.4600   40.2200   54.9600 o         12 PET     -0.591068
    255 O3         29.4500   35.7700   51.6300 o         12 PET     -0.591068
    256 O4         30.5100   37.4600   52.5800 os        12 PET     -0.411922
    257 HA2        26.6400   40.3600   53.6300 ha        12 PET      0.129090
    258 HA3        28.6800   39.5200   52.7900 ha        12 PET      0.145907
    259 HA4        25.1100   36.3300   53.9200 ha        12 PET      0.145907
    260 HA5        27.2700   35.5100   53.0600 ha        12 PET      0.129090
    261 H31        31.8200   36.6100   51.3000 h1        12 PET      0.097188
    262 H32        32.6000   37.5400   52.6400 h1        12 PET      0.097188
    263 H41        31.2700   34.8000   52.9000 h1        12 PET      0.097188
    264 H42        31.6400   35.7700   54.3100 h1        12 PET      0.097188
    265 C1         34.1800   35.4700   54.2100 c         13 PET      0.825469
    266 CA1        35.5400   35.0000   54.0800 ca        13 PET     -0.163574
    267 CA2        36.2600   34.8400   55.2200 ca        13 PET     -0.108363
    268 CA3        37.5600   34.4000   55.2500 ca        13 PET     -0.078542
    269 CA4        36.2000   34.7500   52.8300 ca        13 PET     -0.078542
    270 CA5        37.5100   34.3100   52.8000 ca        13 PET     -0.108363
    271 CA6        38.2300   34.2200   53.9800 ca        13 PET     -0.163574
    272 C2         39.7700   34.0100   54.0000 c         13 PET      0.825469
    273 C3         41.7900   33.8800   55.3800 c3        13 PET      0.058627
    274 C4         42.1200   32.3700   55.3700 c3        13 PET      0.058627
    275 O1         33.3600   35.1500   53.1800 os        13 PET     -0.411922
    276 O2         33.8200   36.0700   55.2400 o         13 PET     -0.591068
    277 O3         40.4300   33.7700   52.9800 o         13 PET     -0.591068
    278 O4         40.3600   34.1700   55.2500 os        13 PET     -0.411922
    279 HA2        35.8500   35.0700   56.1900 ha        13 PET      0.129090
    280 HA3        38.0400   34.1600   56.1900 ha        13 PET      0.145907
    281 HA4        35.6600   34.8900   51.9000 ha        13 PET      0.145907
    282 HA5        38.0000   34.3000   51.8300 ha        13 PET      0.129090
    283 H31        42.3800   34.4500   54.6500 h1        13 PET      0.097188
    284 H32        42.1300   34.1700   56.3800 h1        13 PET      0.097188
    285 H41        41.5800   31.8500   54.5700 h1        13 PET      0.097188
    286 H42        41.8300   31.9100   56.3200 h1        13 PET      0.097188
    287 C1         44.2600   31.1400   55.2900 c         14 PET      0.825469
    288 CA1        45.7800   31.3000   55.2500 ca        14 PET     -0.163574
    289 CA2        46.7000   30.1900   55.3500 ca        14 PET     -0.108363
    290 CA3        48.0800   30.5000   55.2900 ca        14 PET     -0.078542
    291 CA4        46.2700   32.6300   55.1300 ca        14 PET     -0.078542
    292 CA5        47.7000   32.7900   54.9500 ca        14 PET     -0.108363
    293 CA6        48.6200   31.7300   55.0700 ca        14 PET     -0.163574
    294 C2         50.1200   31.9300   54.7900 c         14 PET      0.825469
    295 C3         51.5900   33.7200   54.1100 c3        14 PET      0.058627
    296 C4         52.4500   33.0600   53.0900 c3        14 PET      0.058627
    297 O1         43.5600   32.3300   55.2500 os        14 PET     -0.411922
    298 O2         43.7400   30.0300   55.3500 o         14 PET     -0.591068
    299 O3         50.9600   31.1400   55.1700 o         14 PET     -0.591068
    300 O4         50.3300   33.1800   54.2900 os        14 PET     -0.411922
    301 HA2        46.4800   29.1300   55.4500 ha        14 PET      0.129090
    302 HA3        48.8300   29.7200   55.4200 ha        14 PET      0.145907
    303 HA4        45.6600   33.5300   55.1200 ha        14 PET      0.145907
    304 HA5        47.9700   33.8100   54.6900 ha        14 PET      0.129090
    305 H31        51.4700   34.7800   53.8600 h1        14 PET      0.097188
    306 H32        52.1000   33.8100   55.0800 h1        14 PET      0.097188
    307 H41        51.9400   32.9600   52.1300 h1        14 PET      0.097188
    308 H42        52.5900   31.9900   53.3300 h1        14 PET      0.097188
    309 C1         54.7300   33.4500   52.5700 c         15 PET      0.825469
    310 CA1        55.6900   34.5500   52.2400 ca        15 PET     -0.163574
    311 CA2        55.3000   35.9400   52.4500 ca        15 PET     -0.108363
    312 CA3        56.1900   36.9900   52.2600 ca        15 PET     -0.078542
    313 CA4        57.0800   34.3300   52.0400 ca        15 PET     -0.078542
    314 CA5        57.9300   35.4200   51.8000 ca        15 PET     -0.108363
    315 CA6        57.5500   36.7600   51.9600 ca        15 PET     -0.163574
    316 C2         58.5500   37.8800   52.2100 c         15 PET      0.825469
    317 C3         60.8900   38.5200   52.2400 c3        15 PET      0.058627
    318 C4         62.2700   37.7900   51.8900 c3        15 PET      0.058627
    319 O1         53.5900   33.8700   52.9700 os        15 PET     -0.411922
    320 O2         55.0300   32.2700   52.5500 o         15 PET     -0.591068
    321 O3         58.2300   38.9600   52.7200 o         15 PET     -0.591068
    322 O4         59.8700   37.5100   52.0300 os        15 PET     -0.411922
    323 HA2        54.2800   36.1900   52.7100 ha        15 PET      0.129090
    324 HA3        55.8300   37.9900   52.4700 ha        15 PET      0.145907
    325 HA4        57.5000   33.3300   51.9700 ha        15 PET      0.145907
    326 HA5        58.9400   35.1500   51.5100 ha        15 PET      0.129090
    327 H31        60.6600   39.3700   51.5800 h1        15 PET      0.097188
    328 H32        60.9700   38.7500   53.3100 h1        15 PET      0.097188
    329 H41        62.5500   37.6500   50.8400 h1        15 PET      0.097188
    330 H42        62.2000   36.8200   52.4000 h1        15 PET      0.097188
    331 C1         64.6000   38.3500   52.0600 c         16 PET      0.825469
    332 CA1        65.5500   39.5100   52.2100 ca        16 PET     -0.163574
    333 CA2        66.8900   39.2500   51.8000 ca        16 PET     -0.108363
    334 CA3        67.8300   40.3000   51.8000 ca        16 PET     -0.078542
    335 CA4        65.1500   40.7700   52.6300 ca        16 PET     -0.078542
    336 CA5        66.0600   41.7900   52.7200 ca        16 PET     -0.108363
    337 CA6        67.4100   41.5400   52.2100 ca        16 PET     -0.163574
    338 C2         68.3500   42.7000   52.0500 c         16 PET      0.825469
    339 C3         70.6300   43.4000   52.1700 c3        16 PET      0.058627
    340 C4         72.0100   42.7200   52.2100 c3        16 PET      0.058627
    341 O1         63.3500   38.6200   52.4700 os        16 PET     -0.411922
    342 O2         64.8900   37.3800   51.3400 o         16 PET     -0.591068
    343 O3         67.9600   43.8500   51.9000 o         16 PET     -0.591068
    344 O4         69.6400   42.3700   52.2200 os        16 PET     -0.411922
    345 HA2        67.1300   38.2400   51.4700 ha        16 PET      0.129090
    346 HA3        68.8300   40.2100   51.3800 ha        16 PET      0.145907
    347 HA4        64.1200   40.8900   52.9600 ha        16 PET      0.145907
    348 HA5        65.7700   42.7800   53.0600 ha        16 PET      0.129090
    349 H31        70.4600   44.0500   51.3000 h1        16 PET      0.097188
    350 H32        70.6600   44.1000   53.0200 h1        16 PET      0.097188
    351 H41        72.2200   42.2300   51.2600 h1        16 PET      0.097188
    352 H42        71.9300   42.0300   53.0600 h1        16 PET      0.097188
    353 C1         74.1900   43.5000   52.3100 c         17 PET      0.825469
    354 CA1        75.0500   44.6200   52.7600 ca        17 PET     -0.163574
    355 CA2        74.5300   45.6600   53.5700 ca        17 PET     -0.108363
    356 CA3        75.2700   46.8600   53.7200 ca        17 PET     -0.078542
    357 CA4        76.3900   44.7700   52.2700 ca        17 PET     -0.078542
    358 CA5        77.1100   45.9100   52.5300 ca        17 PET     -0.108363
    359 CA6        76.5800   46.9700   53.2200 ca        17 PET     -0.163574
    360 C2         77.4000   48.2200   53.4400 c         17 PET      0.825469
    361 C3         79.2400   49.4200   52.3500 c3        17 PET      0.058627
    362 C4         80.6400   49.2000   51.8900 c3        17 PET      0.058627
    363 O1         72.8900   43.7300   52.4800 os        17 PET     -0.411922
    364 O2         74.6400   42.4600   51.7300 o         17 PET     -0.591068
    365 O3         77.0400   49.2000   54.1200 o         17 PET     -0.591068
    366 O4         78.5200   48.1500   52.6900 os        17 PET     -0.411922
    367 HA2        73.5000   45.7100   53.9300 ha        17 PET      0.129090
    368 HA3        74.8600   47.6600   54.3300 ha        17 PET      0.145907
    369 HA4        76.9100   44.0500   51.6500 ha        17 PET      0.145907
    370 HA5        78.1000   45.9000   52.0900 ha        17 PET      0.129090
    371 H31        78.6700   49.9600   51.5800 h1        17 PET      0.097188
    372 H32        79.2400   50.1200   53.2000 h1        17 PET      0.097188
    373 H41        80.6100   48.7000   50.9200 h1        17 PET      0.097188
    374 H42        81.0500   48.4200   52.5400 h1        17 PET      0.097188
    375 C1          2.8200   50.2300   51.8900 c         18 PET      0.825469
    376 CA1         3.5900   51.5300   51.9900 ca        18 PET     -0.163574
    377 CA2         5.0100   51.5800   51.8400 ca        18 PET     -0.108363
    378 CA3         5.7100   52.7900   51.9600 ca        18 PET     -0.078542
    379 CA4         2.8800   52.6700   52.1700 ca        18 PET     -0.078542
    380 CA5         3.5500   53.9000   52.2100 ca        18 PET     -0.108363
    381 CA6         4.9500   53.9900   52.1200 ca        18 PET     -0.163574
    382 C2          5.7600   55.3000   52.1300 c         18 PET      0.825469
    383 C3          5.8700   57.6200   53.2100 c3        18 PET      0.058627
    384 C4          6.8100   57.2700   54.3900 c3        18 PET      0.058627
    385 O1          1.5000   50.3500   52.0800 os        18 PET     -0.411922
    386 O2          3.4200   49.1800   51.7400 o         18 PET     -0.591068
    387 O3          6.8600   55.4500   51.6400 o         18 PET     -0.591068
    388 O4          5.1300   56.3500   52.8500 os        18 PET     -0.411922
    389 HA2         5.5100   50.6200   51.9100 ha        18 PET      0.129090
    390 HA3         6.7900   52.7700   52.0400 ha        18 PET      0.145907
    391 HA4         1.8000   52.6700   52.0800 ha        18 PET      0.145907
    392 HA5         2.9600   54.8100   52.2600 ha        18 PET      0.129090
    393 H31         6.3400   58.0900   52.3400 h1        18 PET      0.097188
    394 H32         5.0900   58.2800   53.6200 h1        18 PET      0.097188
    395 H41         6.1900   56.8200   55.1700 h1        18 PET      0.097188
    396 H42         7.2000   58.1700   54.8700 h1        18 PET      0.097188
    397 C1          8.9300   57.0800   53.1900 c         19 PET      0.825469
    398 CA1        10.0500   56.2300   52.6800 ca        19 PET     -0.163574
    399 CA2         9.8000   54.8100   52.5000 ca        19 PET     -0.108363
    400 CA3        10.8600   53.9400   52.2000 ca        19 PET     -0.078542
    401 CA4        11.3500   56.7400   52.4500 ca        19 PET     -0.078542
    402 CA5        12.4300   55.7800   52.2400 ca        19 PET     -0.108363
    403 CA6        12.1700   54.4100   52.0800 ca        19 PET     -0.163574
    404 C2         13.3700   53.4100   52.0800 c         19 PET      0.825469
    405 C3         13.9500   51.3400   53.2800 c3        19 PET      0.058627
    406 C4         14.1300   51.7800   54.7300 c3        19 PET      0.058627
    407 O1          7.9100   56.4100   53.8600 os        19 PET     -0.411922
    408 O2          8.8400   58.3200   52.9800 o         19 PET     -0.591068
    409 O3         14.4900   53.6700   51.6600 o         19 PET     -0.591068
    410 O4         13.0100   52.2400   52.6300 os        19 PET     -0.411922
    411 HA2         8.7900   54.4300   52.6400 ha        19 PET      0.129090
    412 HA3        10.6300   52.8800   52.2400 ha        19 PET      0.145907
    413 HA4        11.5800   57.7800   52.6100 ha        19 PET      0.145907
    414 HA5        13.4400   56.1500   52.1200 ha        19 PET      0.129090
    415 H31        13.5600   50.3100   53.3000 h1        19 PET      0.097188
    416 H32        14.9200   51.2400   52.7700 h1        19 PET      0.097188
    417 H41        14.0100   50.9400   55.4300 h1        19 PET      0.097188
    418 H42        13.4200   52.5700   55.0100 h1        19 PET      0.097188
    419 C1         16.5100   51.3500   55.1700 c         20 PET      0.825469
    420 CA1        17.8600   51.9900   55.3300 ca        20 PET     -0.163574
    421 CA2        17.9600   53.3800   55.5200 ca        20 PET     -0.108363
    422 CA3        19.2600   53.9400   55.3200 ca        20 PET     -0.078542
    423 CA4        19.0100   51.1200   55.3800 ca        20 PET     -0.078542
    424 CA5        20.3000   51.6600   55.3600 ca        20 PET     -0.108363
    425 CA6        20.3600   53.0700   55.2200 ca        20 PET     -0.163574
    426 C2         21.7500   53.5800   54.9500 c         20 PET      0.825469
    427 C3         22.9800   54.9200   53.3200 c3        20 PET      0.058627
    428 C4         23.4000   53.8200   52.2900 c3        20 PET      0.058627
    429 O1         15.5000   52.2000   54.9100 os        20 PET     -0.411922
    430 O2         16.3800   50.1700   55.1100 o         20 PET     -0.591068
    431 O3         22.7900   53.1600   55.4400 o         20 PET     -0.591068
    432 O4         21.7300   54.5100   53.9300 os        20 PET     -0.411922
    433 HA2        17.0900   54.0300   55.5000 ha        20 PET      0.129090
    434 HA3        19.3100   55.0200   55.2500 ha        20 PET      0.145907
    435 HA4        18.8200   50.0600   55.3000 ha        20 PET      0.145907
    436 HA5        21.1500   50.9900   55.2800 ha        20 PET      0.129090
    437 H31        22.7900   55.8900   52.8600 h1        20 PET      0.097188
    438 H32        23.7500   55.1100   54.0900 h1        20 PET      0.097188
    439 H41        23.8500   54.3000   51.4100 h1        20 PET      0.097188
    440 H42        22.5800   53.2000   51.9200 h1        20 PET      0.097188
    441 C1         25.6600   53.5600   53.0400 c         21 PET      0.825469
    442 CA1        26.5100   52.9100   54.1000 ca        21 PET     -0.163574
    443 CA2        27.6700   53.5000   54.5000 ca        21 PET     -0.108363
    444 CA3        28.4900   52.9700   55.4500 ca        21 PET     -0.078542
    445 CA4        26.1300   51.6400   54.6700 ca        21 PET     -0.078542
    446 CA5        26.9400   51.1500   55.7000 ca        21 PET     -0.108363
    447 CA6        28.2100   51.6400   55.9500 ca        21 PET     -0.163574
    448 C2         29.1500   51.0000   57.0200 c         21 PET      0.825469
    449 C3         29.4800   49.1000   58.5600 c3        21 PET      0.058627
    450 C4         30.3200   48.0700   57.8600 c3        21 PET      0.058627
    451 O1         24.4700   53.0100   52.9800 os        21 PET     -0.411922
    452 O2         26.1100   54.4900   52.3400 o         21 PET     -0.591068
    453 O3         30.2000   51.5200   57.4100 o         21 PET     -0.591068
    454 O4         28.6800   49.8500   57.6200 os        21 PET     -0.411922
    455 HA2        28.0200   54.4100   54.0300 ha        21 PET      0.129090
    456 HA3        29.4600   53.3900   55.6800 ha        21 PET      0.145907
    457 HA4        25.1600   51.2100   54.4800 ha        21 PET      0.145907
    458 HA5        26.5800   50.2400   56.1700 ha        21 PET      0.129090
    459 H31        30.1400   49.7700   59.1300 h1        21 PET      0.097188
    460 H32        28.8000   48.6700   59.3000 h1        21 PET      0.097188
    461 H41        29.6600   47.4300   57.2700 h1        21 PET      0.097188
    462 H42        30.8000   47.4000   58.5800 h1        21 PET      0.097188
    463 C1         32.0700   47.8500   56.2400 c         22 PET      0.825469
    464 CA1        33.1300   48.5900   55.4200 ca        22 PET     -0.163574
    465 CA2        34.0500   47.8400   54.6500 ca        22 PET     -0.108363
    466 CA3        35.0100   48.6000   53.9200 ca        22 PET     -0.078542
    467 CA4        33.1200   50.0200   55.3300 ca        22 PET     -0.078542
    468 CA5        33.9200   50.6800   54.4200 ca        22 PET     -0.108363
    469 CA6        34.9200   50.0000   53.6800 ca        22 PET     -0.163574
    470 C2         35.9200   50.7200   52.8900 c         22 PET      0.825469
    471 C3         38.2800   50.4800   52.1800 c3        22 PET      0.058627
    472 C4         39.2800   49.3700   52.2200 c3        22 PET      0.058627
    473 O1         31.3300   48.6900   57.0400 os        22 PET     -0.411922
    474 O2         31.9700   46.6000   56.2400 o         22 PET     -0.591068
    475 O3         35.7900   51.9000   52.5000 o         22 PET     -0.591068
    476 O4         37.0400   49.9600   52.6600 os        22 PET     -0.411922
    477 HA2        34.1400   46.7600   54.7600 ha        22 PET      0.129090
    478 HA3        35.7500   48.0100   53.3900 ha        22 PET      0.145907
    479 HA4        32.2600   50.5600   55.7000 ha        22 PET      0.145907
    480 HA5        33.8200   51.7600   54.3100 ha        22 PET      0.129090
    481 H31        38.1700   50.8700   51.1600 h1        22 PET      0.097188
    482 H32        38.6800   51.3100   52.7900 h1        22 PET      0.097188
    483 H41        39.1500   48.7100   51.3600 h1        22 PET      0.097188
    484 H42        39.0100   48.7500   53.0800 h1        22 PET      0.097188
    485 C1         41.6500   49.0100   52.2900 c         23 PET      0.825469
    486 CA1        42.9700   49.6600   52.1500 ca        23 PET     -0.163574
    487 CA2        44.0200   48.8200   51.7000 ca        23 PET     -0.108363
    488 CA3        45.3300   49.3600   51.7600 ca        23 PET     -0.078542
    489 CA4        43.2000   51.0300   52.4400 ca        23 PET     -0.078542
    490 CA5        44.4800   51.4900   52.4500 ca        23 PET     -0.108363
    491 CA6        45.6000   50.6200   52.1800 ca        23 PET     -0.163574
    492 C2         46.9900   51.1100   52.0700 c         23 PET      0.825469
    493 C3         48.2700   53.1600   52.1100 c3        23 PET      0.058627
    494 C4         48.0400   54.6400   52.0000 c3        23 PET      0.058627
    495 O1         40.6200   49.9300   52.4100 os        23 PET     -0.411922
    496 O2         41.5200   47.8100   52.1800 o         23 PET     -0.591068
    497 O3         47.9200   50.4400   51.7000 o         23 PET     -0.591068
    498 O4         47.1100   52.4000   52.4500 os        23 PET     -0.411922
    499 HA2        43.8800   47.7700   51.4300 ha        23 PET      0.129090
    500 HA3        46.2300   48.8400   51.4600 ha        23 PET      0.145907
    501 HA4        42.3700   51.7200   52.5200 ha        23 PET      0.145907
    502 HA5        44.6200   52.5600   52.5700 ha        23 PET      0.129090
    503 H31        49.0000   53.0000   52.9100 h1        23 PET      0.097188
    504 H32        48.6700   52.7700   51.1700 h1        23 PET      0.097188
    505 H41        47.5300   55.0300   52.8800 h1        23 PET      0.097188
    506 H42        47.4100   54.8500   51.1300 h1        23 PET      0.097188
    507 C1         49.4400   56.6600   51.9600 c         24 PET      0.825469
    508 CA1        50.8800   57.1500   52.0200 ca        24 PET     -0.163574
    509 CA2        51.1700   58.5500   51.9400 ca        24 PET     -0.108363
    510 CA3        52.4700   58.9800   51.9400 ca        24 PET     -0.078542
    511 CA4        51.9600   56.2000   52.0300 ca        24 PET     -0.078542
    512 CA5        53.2500   56.7200   51.9700 ca        24 PET     -0.108363
    513 CA6        53.5400   58.1100   51.9100 ca        24 PET     -0.163574
    514 C2         54.9000   58.5700   51.7400 c         24 PET      0.825469
    515 C3         56.3600   60.5800   51.8200 c3        24 PET      0.058627
    516 C4         56.2000   62.0800   52.2700 c3        24 PET      0.058627
    517 O1         49.3900   55.2800   51.9100 os        24 PET     -0.411922
    518 O2         48.4800   57.4300   52.1500 o         24 PET     -0.591068
    519 O3         55.8100   57.7700   51.5800 o         24 PET     -0.591068
    520 O4         55.0700   59.9200   51.8100 os        24 PET     -0.411922
    521 HA2        50.3700   59.2800   51.9800 ha        24 PET      0.129090
    522 HA3        52.5400   60.0600   51.8500 ha        24 PET      0.145907
    523 HA4        51.9400   55.1200   52.0300 ha        24 PET      0.145907
    524 HA5        54.1500   56.1200   51.8700 ha        24 PET      0.129090
    525 H31        56.9700   60.2100   52.6500 h1        24 PET      0.097188
    526 H32        56.8800   60.4800   50.8500 h1        24 PET      0.097188
    527 H41        55.7500   62.1300   53.2700 h1        24 PET      0.097188
    528 H42        55.5100   62.6800   51.6700 h1        24 PET      0.097188
    529 C1         57.7300   64.0200   52.2000 c         25 PET      0.825469
    530 CA1        59.2100   64.3800   52.2300 ca        25 PET     -0.163574
    531 CA2        59.6700   65.6700   52.6200 ca        25 PET     -0.108363
    532 CA3        60.9900   66.0500   52.6100 ca        25 PET     -0.078542
    533 CA4        60.1500   63.4700   51.7600 ca        25 PET     -0.078542
    534 CA5        61.5300   63.8600   51.7000 ca        25 PET     -0.108363
    535 CA6        61.9400   65.1800   52.1100 ca        25 PET     -0.163574
    536 C2         63.3300   65.5600   51.9800 c         25 PET      0.825469
    537 C3         64.7700   67.6000   51.9100 c3        25 PET      0.058627
    538 C4         65.7600   67.2000   52.9600 c3        25 PET      0.058627
    539 O1         57.5500   62.6600   52.2900 os        25 PET     -0.411922
    540 O2         56.8000   64.8400   52.2400 o         25 PET     -0.591068
    541 O3         64.2800   64.8000   51.8400 o         25 PET     -0.591068
    542 O4         63.4900   66.9200   51.9900 os        25 PET     -0.411922
    543 HA2        58.9600   66.4000   53.0100 ha        25 PET      0.129090
    544 HA3        61.2900   67.0500   52.9300 ha        25 PET      0.145907
    545 HA4        59.7400   62.5000   51.4800 ha        25 PET      0.145907
    546 HA5        62.2800   63.1400   51.3900 ha        25 PET      0.129090
    547 H31        65.2300   67.3000   50.9600 h1        25 PET      0.097188
    548 H32        64.6300   68.6900   51.9000 h1        25 PET      0.097188
    549 H41        66.5300   66.6400   52.4100 h1        25 PET      0.097188
    550 H42        65.3200   66.6100   53.7700 h1        25 PET      0.097188
    551 C1         65.8600   69.2000   54.4100 c         26 PET      0.825469
    552 CA1        66.6300   70.4300   54.6300 ca        26 PET     -0.163574
    553 CA2        65.9100   71.5000   55.1500 ca        26 PET     -0.108363
    554 CA3        66.5000   72.7100   55.3400 ca        26 PET     -0.078542
    555 CA4        68.0200   70.5000   54.3600 ca        26 PET     -0.078542
    556 CA5        68.6600   71.7100   54.6400 ca        26 PET     -0.108363
    557 CA6        67.8400   72.8500   55.0600 ca        26 PET     -0.163574
    558 C2         68.5000   74.1800   55.3400 c         26 PET      0.825469
    559 C3         70.6900   75.2200   55.1700 c3        26 PET      0.058627
    560 C4         72.1600   74.7300   55.5000 c3        26 PET      0.058627
    561 O1         66.4900   68.3700   53.5400 os        26 PET     -0.411922
    562 O2         64.8100   68.9000   54.9300 o         26 PET     -0.591068
    563 O3         67.9100   75.1900   55.6100 o         26 PET     -0.591068
    564 O4         69.8600   74.0800   55.1500 os        26 PET     -0.411922
    565 HA2        64.8700   71.4200   55.4700 ha        26 PET      0.129090
    566 HA3        65.8800   73.5400   55.6800 ha        26 PET      0.145907
    567 HA4        68.5900   69.6200   54.0600 ha        26 PET      0.145907
    568 HA5        69.7400   71.7600   54.5100 ha        26 PET      0.129090
    569 H31        70.6800   75.8300   54.2500 h1        26 PET      0.097188
    570 H32        70.3100   75.8300   56.0000 h1        26 PET      0.097188
    571 H41        72.4400   73.9600   54.7800 h1        26 PET      0.097188
    572 H42        72.1200   74.1900   56.4600 h1        26 PET      0.097188
    573 C1         74.3700   75.7800   55.4500 c         27 PET      0.825469
    574 CA1        74.9600   77.1900   55.4200 ca        27 PET     -0.163574
    575 CA2        76.3500   77.3400   55.2500 ca        27 PET     -0.108363
    576 CA3        76.9100   78.6000   54.9200 ca        27 PET     -0.078542
    577 CA4        74.1400   78.4100   55.4300 ca        27 PET     -0.078542
    578 CA5        74.7100   79.6400   55.1200 ca        27 PET     -0.108363
    579 CA6        76.0400   79.7500   54.7900 ca        27 PET     -0.163574
    580 C2         76.7100   81.0500   54.3300 c         27 PET      0.825469
    581 C3         78.8600   82.1000   53.8700 c3        27 PET      0.058627
    582 C4         79.0900   82.1800   52.3400 c3        27 PET      0.058627
    583 O1         73.0600   75.8500   55.5300 os        27 PET     -0.411922
    584 O2         75.0500   74.7800   55.2300 o         27 PET     -0.591068
    585 O3         76.0400   82.0000   53.9700 o         27 PET     -0.591068
    586 O4         78.0700   80.9500   54.2600 os        27 PET     -0.411922
    587 HA2        76.9900   76.4600   55.3200 ha        27 PET      0.129090
    588 HA3        77.9700   78.5500   54.6700 ha        27 PET      0.145907
    589 HA4        73.1300   78.4700   55.8300 ha        27 PET      0.145907
    590 HA5        73.9700   80.4300   55.0300 ha        27 PET      0.129090
    591 H31        78.5200   83.0500   54.2900 h1        27 PET      0.097188
    592 H32        79.8200   81.8100   54.3000 h1        27 PET      0.097188
    593 H41        78.7600   83.1400   51.9400 h1        27 PET      0.097188
    594 H42        78.4800   81.3800   51.8900 h1        27 PET      0.097188
    595 C1          1.2800    3.0100   52.3800 c         28 PET      0.825469
    596 CA1         2.7600    2.8400   52.2600 ca        28 PET     -0.163574
    597 CA2         3.5600    3.9800   51.9200 ca        28 PET     -0.108363
    598 CA3         4.9600    3.8700   51.7700 ca        28 PET     -0.078542
    599 CA4         3.4000    1.6500   52.7200 ca        28 PET     -0.078542
    600 CA5         4.7700    1.5800   52.5600 ca        28 PET     -0.108363
    601 CA6         5.5100    2.6300   52.1000 ca        28 PET     -0.163574
    602 C2          6.9900    2.5200   52.0400 c         28 PET      0.825469
    603 C3          9.1400    3.8900   52.3200 c3        28 PET      0.058627
    604 C4          9.4400    3.9200   53.8500 c3        28 PET      0.058627
    605 O1          0.5000    1.9600   52.0600 os        28 PET     -0.411922
    606 O2          0.8400    4.1100   52.6400 o         28 PET     -0.591068
    607 O3          7.5500    1.4300   52.0300 o         28 PET     -0.591068
    608 O4          7.6400    3.8100   52.1500 os        28 PET     -0.411922
    609 HA2         3.0900    4.9500   51.8100 ha        28 PET      0.129090
    610 HA3         5.5900    4.7100   51.5200 ha        28 PET      0.145907
    611 HA4         2.8800    0.8100   53.1700 ha        28 PET      0.145907
    612 HA5         5.2200    0.6300   52.8200 ha        28 PET      0.129090
    613 H31         9.6200    3.0500   51.8100 h1        28 PET      0.097188
    614 H32         9.4700    4.8100   51.8300 h1        28 PET      0.097188
    615 H41         9.4800    2.8800   54.2000 h1        28 PET      0.097188
    616 H42         8.5900    4.4300   54.3200 h1        28 PET      0.097188
    617 C1         11.2300    4.6000   55.3800 c         29 PET      0.825469
    618 CA1        12.5600    5.1900   55.5700 ca        29 PET     -0.163574
    619 CA2        13.0100    6.2600   54.7600 ca        29 PET     -0.108363
    620 CA3        14.2800    6.8400   55.0400 ca        29 PET     -0.078542
    621 CA4        13.4600    4.6600   56.5200 ca        29 PET     -0.078542
    622 CA5        14.7100    5.2800   56.7800 ca        29 PET     -0.108363
    623 CA6        15.2000    6.3700   56.0100 ca        29 PET     -0.163574
    624 C2         16.6200    6.8900   56.2000 c         29 PET      0.825469
    625 C3         18.0000    9.0000   56.0900 c3        29 PET      0.058627
    626 C4         17.7600   10.4800   55.7400 c3        29 PET      0.058627
    627 O1         10.7000    4.5900   54.1000 os        29 PET     -0.411922
    628 O2         10.6900    4.0300   56.3100 o         29 PET     -0.591068
    629 O3         17.5100    6.1800   56.6100 o         29 PET     -0.591068
    630 O4         16.7800    8.2100   55.8100 os        29 PET     -0.411922
    631 HA2        12.4800    6.5900   53.8700 ha        29 PET      0.129090
    632 HA3        14.7100    7.6300   54.4200 ha        29 PET      0.145907
    633 HA4        13.2300    3.7500   57.0600 ha        29 PET      0.145907
    634 HA5        15.3000    4.8100   57.5600 ha        29 PET      0.129090
    635 H31        18.2100    8.8600   57.1600 h1        29 PET      0.097188
    636 H32        18.7900    8.5300   55.4800 h1        29 PET      0.097188
    637 H41        17.3700   10.9200   56.6700 h1        29 PET      0.097188
    638 H42        16.9500   10.6300   55.0100 h1        29 PET      0.097188
    639 C1         20.1400   10.9400   56.1200 c         30 PET      0.825469
    640 CA1        21.3500   11.5700   55.4000 ca        30 PET     -0.163574
    641 CA2        21.2400   12.0300   54.0700 ca        30 PET     -0.108363
    642 CA3        22.2600   12.6000   53.4000 ca        30 PET     -0.078542
    643 CA4        22.6600   11.7000   55.9700 ca        30 PET     -0.078542
    644 CA5        23.7200   12.2400   55.2300 ca        30 PET     -0.108363
    645 CA6        23.5600   12.6700   53.9400 ca        30 PET     -0.163574
    646 C2         24.6600   13.4000   53.1700 c         30 PET      0.825469
    647 C3         26.8600   14.1000   53.0400 c3        30 PET      0.058627
    648 C4         27.8200   14.8700   53.9700 c3        30 PET      0.058627
    649 O1         19.0000   11.0200   55.3700 os        30 PET     -0.411922
    650 O2         20.2500   10.4500   57.2000 o         30 PET     -0.591068
    651 O3         24.4600   13.7400   52.0200 o         30 PET     -0.591068
    652 O4         25.8400   13.5600   53.8200 os        30 PET     -0.411922
    653 HA2        20.3100   11.8900   53.5400 ha        30 PET      0.129090
    654 HA3        22.1500   12.8400   52.3400 ha        30 PET      0.145907
    655 HA4        22.8600   11.2600   56.9400 ha        30 PET      0.145907
    656 HA5        24.6800   12.3000   55.7500 ha        30 PET      0.129090
    657 H31        27.4100   13.3700   52.4300 h1        30 PET      0.097188
    658 H32        26.4000   14.8300   52.3700 h1        30 PET      0.097188
    659 H41        27.4700   14.8700   55.0100 h1        30 PET      0.097188
    660 H42        28.8700   14.5800   53.8700 h1        30 PET      0.097188
    661 C1         70.7100   43.5100   56.4100 c         31 PET      0.825469
    662 CA1        69.3000   43.2400   56.1200 ca        31 PET     -0.163574
    663 CA2        68.2500   44.0100   56.7100 ca        31 PET     -0.108363
    664 CA3        66.9600   43.5400   56.9100 ca        31 PET     -0.078542
    665 CA4        68.9500   41.9900   55.6100 ca        31 PET     -0.078542
    666 CA5        67.5500   41.5700   55.7100 ca        31 PET     -0.108363
    667 CA6        66.6300   42.3000   56.4100 ca        31 PET     -0.163574
    668 C2         65.2200   41.7400   56.7600 c         31 PET      0.825469
    669 C3         63.1500   42.0700   57.9500 c3        31 PET      0.058627
    670 C4         62.7100   42.7800   59.2100 c3        31 PET      0.058627
    671 O1         71.5700   42.8200   55.6200 os        31 PET     -0.411922
    672 O2         71.0800   44.2600   57.3100 o         31 PET     -0.591068
    673 O3         64.7300   40.7400   56.2600 o         31 PET     -0.591068
    674 O4         64.4800   42.5000   57.6600 os        31 PET     -0.411922
    675 HA2        68.5500   44.9600   57.1600 ha        31 PET      0.129090
    676 HA3        66.2800   44.1700   57.4900 ha        31 PET      0.145907
    677 HA4        69.6900   41.3700   55.1200 ha        31 PET      0.145907
    678 HA5        67.2700   40.6400   55.2200 ha        31 PET      0.129090
    679 H31        62.6200   42.4100   57.0600 h1        31 PET      0.097188
    680 H32        63.2000   40.9700   57.9900 h1        31 PET      0.097188
    681 H41        62.8500   43.8700   59.2700 h1        31 PET      0.097188
    682 H42        63.2400   42.3600   60.0600 h1        31 PET      0.097188
    683 C1         60.4000   43.3500   58.5300 c         32 PET      0.825469
    684 CA1        58.9200   43.0500   58.7900 ca        32 PET     -0.163574
    685 CA2        58.5400   42.0700   59.7200 ca        32 PET     -0.108363
    686 CA3        57.2000   41.8300   59.9300 ca        32 PET     -0.078542
    687 CA4        57.9300   43.8200   58.1500 ca        32 PET     -0.078542
    688 CA5        56.5300   43.5700   58.4000 ca        32 PET     -0.108363
    689 CA6        56.2100   42.5800   59.3200 ca        32 PET     -0.163574
    690 C2         54.6600   42.2400   59.4800 c         32 PET      0.825469
    691 C3         53.1500   40.5000   60.2900 c3        32 PET      0.058627
    692 C4         53.4100   39.1400   59.6200 c3        32 PET      0.058627
    693 O1         61.2600   42.6600   59.3500 os        32 PET     -0.411922
    694 O2         60.7300   43.9700   57.5000 o         32 PET     -0.591068
    695 O3         53.7300   42.7500   58.8500 o         32 PET     -0.591068
    696 O4         54.3900   41.2900   60.4000 os        32 PET     -0.411922
    697 HA2        59.3400   41.4700   60.1400 ha        32 PET      0.129090
    698 HA3        56.8200   41.0700   60.6000 ha        32 PET      0.145907
    699 HA4        58.2500   44.6000   57.4600 ha        32 PET      0.145907
    700 HA5        55.8200   44.2400   57.9100 ha        32 PET      0.129090
    701 H31        52.8800   40.2700   61.3300 h1        32 PET      0.097188
    702 H32        52.3600   41.1200   59.8500 h1        32 PET      0.097188
    703 H41        52.4500   38.7700   59.2600 h1        32 PET      0.097188
    704 H42        53.8600   38.5700   60.4400 h1        32 PET      0.097188
    705 C1         55.1400   37.9900   58.4400 c         33 PET      0.825469
    706 CA1        56.5300   38.1600   57.9000 ca        33 PET     -0.163574
    707 CA2        57.1200   39.4700   57.6100 ca        33 PET     -0.108363
    708 CA3        58.4300   39.6200   57.1600 ca        33 PET     -0.078542
    709 CA4        57.3200   37.0200   57.7100 ca        33 PET     -0.078542
    710 CA5        58.7000   37.1700   57.3100 ca        33 PET     -0.108363
    711 CA6        59.2200   38.4200   57.0600 ca        33 PET     -0.163574
    712 C2         60.6200   38.5600   56.4900 c         33 PET      0.825469
    713 C3         62.6300   37.5500   55.5900 c3        33 PET      0.058627
    714 C4         63.5200   37.7100   56.7600 c3        33 PET      0.058627
    715 O1         54.4800   39.1600   58.7400 os        33 PET     -0.411922
    716 O2         54.5800   36.9000   58.5900 o         33 PET     -0.591068
    717 O3         61.2100   39.6600   56.4300 o         33 PET     -0.591068
    718 O4         61.2300   37.4100   56.0300 os        33 PET     -0.411922
    719 HA2        56.4500   40.3200   57.7200 ha        33 PET      0.129090
    720 HA3        58.8600   40.6000   56.9700 ha        33 PET      0.145907
    721 HA4        57.0000   36.0100   57.9600 ha        33 PET      0.145907
    722 HA5        59.3000   36.2600   57.3200 ha        33 PET      0.129090
    723 H31        62.8000   36.5600   55.1700 h1        33 PET      0.097188
    724 H32        62.7400   38.3900   54.8900 h1        33 PET      0.097188
    725 H41        63.6700   38.7100   57.1900 h1        33 PET      0.097188
    726 H42        64.5300   37.4200   56.4300 h1        33 PET      0.097188
    727 C1         63.2700   35.4600   57.5100 c         34 PET      0.825469
    728 CA1        62.1200   34.6400   58.1000 ca        34 PET     -0.163574
    729 CA2        61.4500   33.6000   57.4100 ca        34 PET     -0.108363
    730 CA3        60.2100   33.2000   57.8200 ca        34 PET     -0.078542
    731 CA4        61.6100   34.9900   59.3900 ca        34 PET     -0.078542
    732 CA5        60.4000   34.4700   59.7600 ca        34 PET     -0.108363
    733 CA6        59.5700   33.7300   58.9500 ca        34 PET     -0.163574
    734 C2         58.0700   33.5900   59.2000 c         34 PET      0.825469
    735 C3         56.2000   34.3600   60.5700 c3        34 PET      0.058627
    736 C4         56.0000   35.0400   62.0100 c3        34 PET      0.058627
    737 O1         63.1400   36.7800   57.7700 os        34 PET     -0.411922
    738 O2         64.0000   35.0000   56.6300 o         34 PET     -0.591068
    739 O3         57.3700   32.9400   58.4100 o         34 PET     -0.591068
    740 O4         57.5900   34.1400   60.3000 os        34 PET     -0.411922
    741 HA2        61.9100   33.1800   56.5200 ha        34 PET      0.129090
    742 HA3        59.6100   32.5400   57.2000 ha        34 PET      0.145907
    743 HA4        62.1100   35.6700   60.0800 ha        34 PET      0.145907
    744 HA5        60.0900   34.7600   60.7700 ha        34 PET      0.129090
    745 H31        55.6900   34.9800   59.8200 h1        34 PET      0.097188
    746 H32        55.5900   33.4500   60.5700 h1        34 PET      0.097188
    747 H41        55.8900   34.3300   62.8400 h1        34 PET      0.097188
    748 H42        55.0400   35.5300   61.8000 h1        34 PET      0.097188
    749 C1         57.2200   37.1100   61.6000 c         35 PET      0.825469
    750 CA1        58.6600   37.5500   61.4200 ca        35 PET     -0.163574
    751 CA2        58.9900   38.4800   60.4100 ca        35 PET     -0.108363
    752 CA3        60.3300   38.8100   60.1000 ca        35 PET     -0.078542
    753 CA4        59.7100   37.0100   62.2900 ca        35 PET     -0.078542
    754 CA5        61.0200   37.3300   61.9600 ca        35 PET     -0.108363
    755 CA6        61.3200   38.1400   60.8200 ca        35 PET     -0.163574
    756 C2         62.7500   38.5500   60.4900 c         35 PET      0.825469
    757 C3         65.0600   37.8700   60.4600 c3        35 PET      0.058627
    758 C4         65.9100   36.6400   60.0300 c3        35 PET      0.058627
    759 O1         57.1600   35.9800   62.3200 os        35 PET     -0.411922
    760 O2         56.2900   37.7600   61.1900 o         35 PET     -0.591068
    761 O3         63.0600   39.6700   60.1400 o         35 PET     -0.591068
    762 O4         63.6600   37.5000   60.6000 os        35 PET     -0.411922
    763 HA2        58.2000   39.0000   59.8800 ha        35 PET      0.129090
    764 HA3        60.5700   39.5700   59.3700 ha        35 PET      0.145907
    765 HA4        59.6500   36.3100   63.1200 ha        35 PET      0.145907
    766 HA5        61.8000   37.1600   62.6900 ha        35 PET      0.129090
    767 H31        65.1200   38.6900   59.7400 h1        35 PET      0.097188
    768 H32        65.5100   38.2400   61.3800 h1        35 PET      0.097188
    769 H41        65.2200   36.0600   59.4000 h1        35 PET      0.097188
    770 H42        66.1700   36.0800   60.9300 h1        35 PET      0.097188
    771 C1         68.3100   37.2900   59.9600 c         36 PET      0.825469
    772 CA1        69.3600   37.9200   59.0500 ca        36 PET     -0.163574
    773 CA2        70.6500   38.3300   59.5500 ca        36 PET     -0.108363
    774 CA3        71.5100   39.0300   58.7300 ca        36 PET     -0.078542
    775 CA4        69.0800   38.1900   57.6800 ca        36 PET     -0.078542
    776 CA5        69.9200   39.0100   56.9200 ca        36 PET     -0.108363
    777 CA6        71.1300   39.4700   57.4200 ca        36 PET     -0.163574
    778 C2         72.0800   40.2200   56.4300 c         36 PET      0.825469
    779 C3         74.3300   41.1700   56.2000 c3        36 PET      0.058627
    780 C4         75.0800   42.2400   56.9900 c3        36 PET      0.058627
    781 O1         67.0900   37.0500   59.2700 os        36 PET     -0.411922
    782 O2         68.4800   37.0200   61.0900 o         36 PET     -0.591068
    783 O3         72.0100   40.0000   55.2500 o         36 PET     -0.591068
    784 O4         73.1400   40.8300   57.0200 os        36 PET     -0.411922
    785 HA2        70.8700   38.3500   60.6100 ha        36 PET      0.129090
    786 HA3        72.4600   39.3200   59.1500 ha        36 PET      0.145907
    787 HA4        68.1700   37.7900   57.2400 ha        36 PET      0.145907
    788 HA5        69.6800   39.1600   55.8700 ha        36 PET      0.129090
    789 H31        75.0000   40.3400   55.9100 h1        36 PET      0.097188
    790 H32        74.0800   41.6000   55.2200 h1        36 PET      0.097188
    791 H41        74.7100   42.3500   58.0200 h1        36 PET      0.097188
    792 H42        74.9100   43.1800   56.4400 h1        36 PET      0.097188
    793 C1         -2.6900   42.7400   57.7200 c         37 PET      0.825469
    794 CA1        -1.2600   42.7100   57.4000 ca        37 PET     -0.163574
    795 CA2        -0.4300   43.6200   58.0900 ca        37 PET     -0.108363
    796 CA3         0.9800   43.4800   57.8900 ca        37 PET     -0.078542
    797 CA4        -0.7600   41.7100   56.5800 ca        37 PET     -0.078542
    798 CA5         0.5900   41.7600   56.1900 ca        37 PET     -0.108363
    799 CA6         1.5200   42.5900   56.9600 ca        37 PET     -0.163574
    800 C2          2.9600   42.5000   56.7500 c         37 PET      0.825469
    801 C3          4.7600   41.3400   55.5400 c3        37 PET      0.058627
    802 C4          5.3900   40.6600   56.8500 c3        37 PET      0.058627
    803 O1         -3.5400   41.9200   56.9600 os        37 PET     -0.411922
    804 O2         -3.1000   43.4200   58.6200 o         37 PET     -0.591068
    805 O3          3.7500   42.9500   57.5500 o         37 PET     -0.591068
    806 O4          3.3500   41.6100   55.7800 os        37 PET     -0.411922
    807 HA2        -0.8600   44.2800   58.8400 ha        37 PET      0.129090
    808 HA3         1.5900   44.2100   58.4100 ha        37 PET      0.145907
    809 HA4        -1.4400   41.0200   56.0800 ha        37 PET      0.145907
    810 HA5         0.9400   40.9700   55.5400 ha        37 PET      0.129090
    811 H31         4.8900   40.7000   54.6600 h1        37 PET      0.097188
    812 H32         5.2900   42.2900   55.4000 h1        37 PET      0.097188
    813 H41         4.8400   40.7100   57.7900 h1        37 PET      0.097188
    814 H42         6.2600   41.2700   57.1500 h1        37 PET      0.097188
    815 C1          6.7800   39.0700   55.6500 c         38 PET      0.825469
    816 CA1         7.2400   37.6000   55.6500 ca        38 PET     -0.163574
    817 CA2         6.3700   36.4500   55.8600 ca        38 PET     -0.108363
    818 CA3         6.8400   35.1100   55.7300 ca        38 PET     -0.078542
    819 CA4         8.5800   37.3900   55.4700 ca        38 PET     -0.078542
    820 CA5         8.9700   36.0300   55.1900 ca        38 PET     -0.108363
    821 CA6         8.1800   34.8800   55.3500 ca        38 PET     -0.163574
    822 C2          8.6100   33.4300   55.0800 c         38 PET      0.825469
    823 C3         10.3000   32.0400   53.8900 c3        38 PET      0.058627
    824 C4         11.6500   32.2000   53.0900 c3        38 PET      0.058627
    825 O1          5.7500   39.3100   56.5000 os        38 PET     -0.411922
    826 O2          7.3700   39.8800   54.9800 o         38 PET     -0.591068
    827 O3          7.9800   32.4400   55.4100 o         38 PET     -0.591068
    828 O4          9.7200   33.4000   54.2900 os        38 PET     -0.411922
    829 HA2         5.3200   36.6100   56.0900 ha        38 PET      0.129090
    830 HA3         6.1600   34.2900   55.9100 ha        38 PET      0.145907
    831 HA4         9.2400   38.2300   55.2700 ha        38 PET      0.145907
    832 HA5        10.0200   35.9400   54.9200 ha        38 PET      0.129090
    833 H31        10.4800   31.5000   54.8300 h1        38 PET      0.097188
    834 H32         9.6300   31.5200   53.1800 h1        38 PET      0.097188
    835 H41        12.1300   33.1800   53.2200 h1        38 PET      0.097188
    836 H42        11.4400   31.9800   52.0400 h1        38 PET      0.097188
    837 C1         12.3100   29.9600   53.2500 c         39 PET      0.825469
    838 CA1        13.3200   29.0600   54.0100 ca        39 PET     -0.163574
    839 CA2        14.6000   29.5200   54.4100 ca        39 PET     -0.108363
    840 CA3        15.5600   28.7600   55.0300 ca        39 PET     -0.078542
    841 CA4        13.0900   27.7100   54.2300 ca        39 PET     -0.078542
    842 CA5        14.0800   26.9700   54.9400 ca        39 PET     -0.108363
    843 CA6        15.3000   27.4600   55.3400 ca        39 PET     -0.163574
    844 C2         16.3300   26.6100   55.9200 c         39 PET      0.825469
    845 C3         18.5800   26.0900   56.2300 c3        39 PET      0.058627
    846 C4         18.9000   25.2100   54.9600 c3        39 PET      0.058627
    847 O1         12.6200   31.2600   53.5300 os        39 PET     -0.411922
    848 O2         11.2800   29.5700   52.6600 o         39 PET     -0.591068
    849 O3         16.1300   25.4100   56.1600 o         39 PET     -0.591068
    850 O4         17.5900   27.1100   55.9400 os        39 PET     -0.411922
    851 HA2        14.8900   30.5500   54.2200 ha        39 PET      0.129090
    852 HA3        16.5400   29.2200   55.1500 ha        39 PET      0.145907
    853 HA4        12.1700   27.2200   53.9300 ha        39 PET      0.145907
    854 HA5        13.7800   25.9400   55.1100 ha        39 PET      0.129090
    855 H31        19.5500   26.4800   56.5700 h1        39 PET      0.097188
    856 H32        18.3300   25.3800   57.0300 h1        39 PET      0.097188
    857 H41        17.9300   24.9200   54.5300 h1        39 PET      0.097188
    858 H42        19.4000   24.2800   55.2400 h1        39 PET      0.097188
    859 C1         20.6600   25.3400   53.2700 c         40 PET      0.825469
    860 CA1        21.8700   26.1300   52.8400 ca        40 PET     -0.163574
    861 CA2        23.0400   25.5000   52.3600 ca        40 PET     -0.108363
    862 CA3        24.2200   26.2300   52.2100 ca        40 PET     -0.078542
    863 CA4        21.8900   27.5300   53.0600 ca        40 PET     -0.078542
    864 CA5        23.1000   28.3200   52.8600 ca        40 PET     -0.108363
    865 CA6        24.2600   27.6000   52.4700 ca        40 PET     -0.163574
    866 C2         25.6000   28.3100   52.4600 c         40 PET      0.825469
    867 C3         28.0800   28.1900   52.2900 c3        40 PET      0.058627
    868 C4         29.0900   27.0100   52.3500 c3        40 PET      0.058627
    869 O1         19.8100   26.0100   54.1800 os        40 PET     -0.411922
    870 O2         20.5400   24.1400   53.0300 o         40 PET     -0.591068
    871 O3         25.6900   29.4700   52.8200 o         40 PET     -0.591068
    872 O4         26.7100   27.6200   52.1600 os        40 PET     -0.411922
    873 HA2        23.0700   24.4200   52.2400 ha        40 PET      0.129090
    874 HA3        25.0700   25.6400   51.8800 ha        40 PET      0.145907
    875 HA4        21.0100   28.1000   53.3500 ha        40 PET      0.145907
    876 HA5        23.0700   29.3100   53.2900 ha        40 PET      0.129090
    877 H31        28.2900   28.8600   51.4500 h1        40 PET      0.097188
    878 H32        28.1300   28.8000   53.2000 h1        40 PET      0.097188
    879 H41        29.8500   27.0200   51.5600 h1        40 PET      0.097188
    880 H42        28.5200   26.0800   52.3200 h1        40 PET      0.097188
    881 C1         30.8200   27.6200   53.9400 c         41 PET      0.825469
    882 CA1        31.4700   27.1400   55.2000 ca        41 PET     -0.163574
    883 CA2        30.9500   26.0700   55.9800 ca        41 PET     -0.108363
    884 CA3        31.5700   25.7900   57.1900 ca        41 PET     -0.078542
    885 CA4        32.7000   27.7800   55.6300 ca        41 PET     -0.078542
    886 CA5        33.2800   27.5300   56.8600 ca        41 PET     -0.108363
    887 CA6        32.7000   26.5100   57.6900 ca        41 PET     -0.163574
    888 C2         33.4200   25.9900   58.9300 c         41 PET      0.825469
    889 C3         35.3800   26.3300   60.2800 c3        41 PET      0.058627
    890 C4         36.6800   27.0000   59.9400 c3        41 PET      0.058627
    891 O1         29.6900   26.8900   53.6500 os        41 PET     -0.411922
    892 O2         31.1400   28.5800   53.2600 o         41 PET     -0.591068
    893 O3         32.9200   25.2900   59.8300 o         41 PET     -0.591068
    894 O4         34.5700   26.6300   59.1200 os        41 PET     -0.411922
    895 HA2        30.0200   25.5800   55.7200 ha        41 PET      0.129090
    896 HA3        31.3900   24.8600   57.7200 ha        41 PET      0.145907
    897 HA4        33.2900   28.4600   55.0300 ha        41 PET      0.145907
    898 HA5        34.2800   27.9100   57.0800 ha        41 PET      0.129090
    899 H31        34.9300   26.6900   61.2100 h1        41 PET      0.097188
    900 H32        35.6100   25.2600   60.3500 h1        41 PET      0.097188
    901 H41        36.5700   28.0200   60.3300 h1        41 PET      0.097188
    902 H42        36.7300   27.0000   58.8500 h1        41 PET      0.097188
    903 C1         39.1100   26.9800   60.1900 c         42 PET      0.825469
    904 CA1        40.3000   26.2000   60.6500 ca        42 PET     -0.163574
    905 CA2        40.1500   24.9500   61.3000 ca        42 PET     -0.108363
    906 CA3        41.2100   24.2000   61.6500 ca        42 PET     -0.078542
    907 CA4        41.5600   26.7100   60.4200 ca        42 PET     -0.078542
    908 CA5        42.6700   26.0000   60.8900 ca        42 PET     -0.108363
    909 CA6        42.4800   24.6800   61.5300 ca        42 PET     -0.163574
    910 C2         43.7200   23.9400   61.9900 c         42 PET      0.825469
    911 C3         44.5600   21.6700   62.4800 c3        42 PET      0.058627
    912 C4         45.2600   21.1000   61.1600 c3        42 PET      0.058627
    913 O1         37.8200   26.3900   60.5000 os        42 PET     -0.411922
    914 O2         39.2200   28.0200   59.6200 o         42 PET     -0.591068
    915 O3         44.7600   24.5300   62.2900 o         42 PET     -0.591068
    916 O4         43.4600   22.5500   62.2100 os        42 PET     -0.411922
    917 HA2        39.1600   24.6000   61.5700 ha        42 PET      0.129090
    918 HA3        41.0800   23.2400   62.1300 ha        42 PET      0.145907
    919 HA4        41.7600   27.6400   59.8900 ha        42 PET      0.145907
    920 HA5        43.6900   26.3700   60.8800 ha        42 PET      0.129090
    921 H31        45.3300   22.1900   63.0700 h1        42 PET      0.097188
    922 H32        44.2100   20.9100   63.1900 h1        42 PET      0.097188
    923 H41        44.4400   20.6600   60.5700 h1        42 PET      0.097188
    924 H42        45.9700   20.3600   61.5400 h1        42 PET      0.097188
    925 C1         47.1600   21.9300   60.0000 c         43 PET      0.825469
    926 CA1        47.8000   23.1000   59.4000 ca        43 PET     -0.163574
    927 CA2        47.3200   24.4100   59.4100 ca        43 PET     -0.108363
    928 CA3        48.0100   25.4600   58.8000 ca        43 PET     -0.078542
    929 CA4        49.0400   22.9000   58.7400 ca        43 PET     -0.078542
    930 CA5        49.6400   23.8700   58.0000 ca        43 PET     -0.108363
    931 CA6        49.2500   25.2000   58.0800 ca        43 PET     -0.163574
    932 C2         49.8900   26.3900   57.2500 c         43 PET      0.825469
    933 C3         51.4100   26.6700   55.3100 c3        43 PET      0.058627
    934 C4         52.1100   27.9800   55.6900 c3        43 PET      0.058627
    935 O1         45.8900   22.1700   60.4500 os        43 PET     -0.411922
    936 O2         47.7000   20.8200   60.0500 o         43 PET     -0.591068
    937 O3         49.4600   27.5700   57.2400 o         43 PET     -0.591068
    938 O4         50.9500   25.9900   56.4400 os        43 PET     -0.411922
    939 HA2        46.4200   24.7200   59.9300 ha        43 PET      0.129090
    940 HA3        47.6200   26.4700   58.8000 ha        43 PET      0.145907
    941 HA4        49.5300   21.9300   58.7400 ha        43 PET      0.145907
    942 HA5        50.6600   23.6600   57.7200 ha        43 PET      0.129090
    943 H31        52.0100   26.0100   54.6700 h1        43 PET      0.097188
    944 H32        50.5700   27.0400   54.7000 h1        43 PET      0.097188
    945 H41        51.5600   28.4700   56.5000 h1        43 PET      0.097188
    946 H42        51.9400   28.6100   54.8100 h1        43 PET      0.097188
    947 C1         54.2100   29.1000   56.0500 c         44 PET      0.825469
    948 CA1        55.7000   28.9100   56.0000 ca        44 PET     -0.163574
    949 CA2        56.3200   27.8100   55.5000 ca        44 PET     -0.108363
    950 CA3        57.7200   27.6600   55.5100 ca        44 PET     -0.078542
    951 CA4        56.5600   29.9000   56.5400 ca        44 PET     -0.078542
    952 CA5        57.9300   29.8200   56.5900 ca        44 PET     -0.108363
    953 CA6        58.5500   28.7600   55.9700 ca        44 PET     -0.163574
    954 C2         60.0100   28.7100   55.9100 c         44 PET      0.825469
    955 C3         61.9700   27.8400   54.7800 c3        44 PET      0.058627
    956 C4         62.6500   26.9100   55.7700 c3        44 PET      0.058627
    957 O1         53.5600   27.8700   55.8100 os        44 PET     -0.411922
    958 O2         53.6700   30.1600   56.0700 o         44 PET     -0.591068
    959 O3         60.6700   29.6000   56.3900 o         44 PET     -0.591068
    960 O4         60.5400   27.8400   54.9700 os        44 PET     -0.411922
    961 HA2        55.7000   26.9800   55.1600 ha        44 PET      0.129090
    962 HA3        58.1800   26.7500   55.1500 ha        44 PET      0.145907
    963 HA4        56.1400   30.7700   57.0400 ha        44 PET      0.145907
    964 HA5        58.4800   30.6600   57.0000 ha        44 PET      0.129090
    965 H31        62.2500   27.6000   53.7500 h1        44 PET      0.097188
    966 H32        62.4400   28.8300   54.8600 h1        44 PET      0.097188
    967 H41        62.6100   27.5200   56.6800 h1        44 PET      0.097188
    968 H42        63.7000   26.7400   55.5100 h1        44 PET      0.097188
    969 C1         62.2800   24.4900   56.0800 c         45 PET      0.825469
    970 CA1        61.2600   23.4300   56.2600 ca        45 PET     -0.163574
    971 CA2        59.9300   23.6100   55.7500 ca        45 PET     -0.108363
    972 CA3        59.2200   22.4200   55.5200 ca        45 PET     -0.078542
    973 CA4        61.6400   22.2000   56.8300 ca        45 PET     -0.078542
    974 CA5        60.8100   21.0700   56.7300 ca        45 PET     -0.108363
    975 CA6        59.6800   21.1300   55.9200 ca        45 PET     -0.163574
    976 C2         58.8500   19.9400   55.5800 c         45 PET      0.825469
    977 C3         59.2500   17.5700   55.1900 c3        45 PET      0.058627
    978 C4         59.8100   17.8100   53.7000 c3        45 PET      0.058627
    979 O1         61.8000   25.7500   55.8300 os        45 PET     -0.411922
    980 O2         63.4700   24.2400   56.0600 o         45 PET     -0.591068
    981 O3         57.8700   19.9900   54.8500 o         45 PET     -0.591068
    982 O4         59.5600   18.7800   55.9600 os        45 PET     -0.411922
    983 HA2        59.6000   24.6100   55.5100 ha        45 PET      0.129090
    984 HA3        58.2500   22.5200   55.0400 ha        45 PET      0.145907
    985 HA4        62.6500   22.0400   57.2200 ha        45 PET      0.145907
    986 HA5        61.2200   20.1600   57.1600 ha        45 PET      0.129090
    987 H31        59.7300   16.6800   55.6200 h1        45 PET      0.097188
    988 H32        58.1700   17.3600   55.1200 h1        45 PET      0.097188
    989 H41        59.1500   18.4700   53.1300 h1        45 PET      0.097188
    990 H42        59.9300   16.8500   53.1800 h1        45 PET      0.097188
    991 C1         62.1600   17.7000   54.1900 c         46 PET      0.825469
    992 CA1        63.3100   18.6100   54.4800 ca        46 PET     -0.163574
    993 CA2        64.5700   18.1200   54.8600 ca        46 PET     -0.108363
    994 CA3        65.6800   18.9700   54.9800 ca        46 PET     -0.078542
    995 CA4        63.2100   20.0600   54.3500 ca        46 PET     -0.078542
    996 CA5        64.3200   20.9700   54.5100 ca        46 PET     -0.108363
    997 CA6        65.5600   20.4100   54.9000 ca        46 PET     -0.163574
    998 C2         66.7400   21.3300   55.2000 c         46 PET      0.825469
    999 C3         67.4000   23.6600   55.7000 c3        46 PET      0.058627
   1000 C4         66.7200   24.9700   55.1900 c3        46 PET      0.058627
   1001 O1         61.0900   18.4300   53.8000 os        46 PET     -0.411922
   1002 O2         62.1900   16.4600   54.2800 o         46 PET     -0.591068
   1003 O3         67.8400   20.9100   55.1000 o         46 PET     -0.591068
   1004 O4         66.4000   22.5800   55.6400 os        46 PET     -0.411922
   1005 HA2        64.6200   17.0600   55.0700 ha        46 PET      0.129090
   1006 HA3        66.6500   18.5200   55.1900 ha        46 PET      0.145907
   1007 HA4        62.3400   20.5600   53.9200 ha        46 PET      0.145907
   1008 HA5        64.3200   22.0600   54.4200 ha        46 PET      0.129090
   1009 H31        67.7300   23.7400   56.7400 h1        46 PET      0.097188
   1010 H32        68.3300   23.4500   55.1500 h1        46 PET      0.097188
   1011 H41        65.8800   25.0700   55.8900 h1        46 PET      0.097188
   1012 H42        66.3800   24.9000   54.1500 h1        46 PET      0.097188
   1013 C1         67.1900   27.4100   55.2700 c         47 PET      0.825469
   1014 CA1        68.3000   28.4100   55.3200 ca        47 PET     -0.163574
   1015 CA2        67.9700   29.7800   55.3300 ca        47 PET     -0.108363
   1016 CA3        68.9900   30.7400   55.6500 ca        47 PET     -0.078542
   1017 CA4        69.6900   27.9900   55.3600 ca        47 PET     -0.078542
   1018 CA5        70.6400   28.9300   55.3400 ca        47 PET     -0.108363
   1019 CA6        70.3200   30.3300   55.5300 ca        47 PET     -0.163574
   1020 C2         71.3700   31.2800   55.7100 c         47 PET      0.825469
   1021 C3         73.8100   31.3700   56.0200 c3        47 PET      0.058627
   1022 C4         75.0400   30.5300   55.6400 c3        47 PET      0.058627
   1023 O1         67.6400   26.1100   55.3200 os        47 PET     -0.411922
   1024 O2         66.0000   27.7600   55.2500 o         47 PET     -0.591068
   1025 O3         71.1800   32.4600   55.9500 o         47 PET     -0.591068
   1026 O4         72.5900   30.7500   55.5700 os        47 PET     -0.411922
   1027 HA2        66.9200   30.0700   55.3900 ha        47 PET      0.129090
   1028 HA3        68.6600   31.7700   55.7300 ha        47 PET      0.145907
   1029 HA4        69.9700   26.9400   55.3100 ha        47 PET      0.145907
   1030 HA5        71.6400   28.5100   55.2700 ha        47 PET      0.129090
   1031 H31        73.9000   32.3800   55.6200 h1        47 PET      0.097188
   1032 H32        73.7600   31.4700   57.1100 h1        47 PET      0.097188
   1033 H41        74.8900   30.1000   54.6400 h1        47 PET      0.097188
   1034 H42        75.3000   29.7100   56.3200 h1        47 PET      0.097188
   1035 C1         -2.5100   31.0100   55.2800 c         48 PET      0.825469
   1036 CA1        -1.4500   32.0600   55.1500 ca        48 PET     -0.163574
   1037 CA2        -1.7600   33.4400   55.4400 ca        48 PET     -0.108363
   1038 CA3        -0.7000   34.3900   55.4500 ca        48 PET     -0.078542
   1039 CA4        -0.1500   31.6700   54.8600 ca        48 PET     -0.078542
   1040 CA5         0.8600   32.6300   54.7600 ca        48 PET     -0.108363
   1041 CA6         0.5400   34.0000   55.0400 ca        48 PET     -0.163574
   1042 C2          1.5700   35.0400   54.7600 c         48 PET      0.825469
   1043 C3          3.6400   35.3300   53.6000 c3        48 PET      0.058627
   1044 C4          4.4100   34.6900   52.3700 c3        48 PET      0.058627
   1045 O1         -3.8000   31.5300   55.5500 os        48 PET     -0.411922
   1046 O2         -2.3400   29.8100   55.1200 o         48 PET     -0.591068
   1047 O3          1.6700   36.0900   55.3000 o         48 PET     -0.591068
   1048 O4          2.4100   34.6700   53.8300 os        48 PET     -0.411922
   1049 HA2        -2.7400   33.8500   55.6800 ha        48 PET      0.129090
   1050 HA3        -0.9500   35.4400   55.5200 ha        48 PET      0.145907
   1051 HA4         0.1000   30.6100   54.7600 ha        48 PET      0.145907
   1052 HA5         1.8100   32.2900   54.3600 ha        48 PET      0.129090
   1053 H31         3.4200   36.4000   53.4600 h1        48 PET      0.097188
   1054 H32         4.2000   35.2500   54.5400 h1        48 PET      0.097188
   1055 H41         3.7800   34.9800   51.5200 h1        48 PET      0.097188
   1056 H42         4.4400   33.6000   52.4400 h1        48 PET      0.097188
   1057 C1          6.2400   36.4400   52.4900 c         49 PET      0.825469
   1058 CA1         7.7400   36.6200   52.3000 ca        49 PET     -0.163574
   1059 CA2         8.5600   35.5500   52.0900 ca        49 PET     -0.108363
   1060 CA3         9.9600   35.7000   51.8900 ca        49 PET     -0.078542
   1061 CA4         8.2800   37.9200   52.3500 ca        49 PET     -0.078542
   1062 CA5         9.6800   38.0600   52.3200 ca        49 PET     -0.108363
   1063 CA6        10.5600   36.9600   52.1700 ca        49 PET     -0.163574
   1064 C2         12.0800   37.1600   51.9300 c         49 PET      0.825469
   1065 C3         14.1900   36.1600   52.0200 c3        49 PET      0.058627
   1066 C4         14.4900   36.9900   53.3600 c3        49 PET      0.058627
   1067 O1          5.7700   35.1400   52.3900 os        49 PET     -0.411922
   1068 O2          5.5700   37.4600   52.6600 o         49 PET     -0.591068
   1069 O3         12.6100   38.2900   51.6700 o         49 PET     -0.591068
   1070 O4         12.7800   36.0100   51.9200 os        49 PET     -0.411922
   1071 HA2         8.1500   34.5500   52.1200 ha        49 PET      0.129090
   1072 HA3        10.5500   34.8200   51.6700 ha        49 PET      0.145907
   1073 HA4         7.6400   38.7800   52.5100 ha        49 PET      0.145907
   1074 HA5         9.9900   39.0800   52.5100 ha        49 PET      0.129090
   1075 H31        14.8200   35.2700   52.1200 h1        49 PET      0.097188
   1076 H32        14.5700   36.7300   51.1700 h1        49 PET      0.097188
   1077 H41        13.6400   36.9200   54.0400 h1        49 PET      0.097188
   1078 H42        14.6100   38.0400   53.0600 h1        49 PET      0.097188
   1079 C1         15.4800   35.3000   54.7400 c         50 PET      0.825469
   1080 CA1        16.7900   34.5700   55.0900 ca        50 PET     -0.163574
   1081 CA2        16.7400   33.1800   55.2600 ca        50 PET     -0.108363
   1082 CA3        17.9500   32.4100   55.2000 ca        50 PET     -0.078542
   1083 CA4        18.0000   35.3000   55.0200 ca        50 PET     -0.078542
   1084 CA5        19.2000   34.5400   55.1500 ca        50 PET     -0.108363
   1085 CA6        19.2200   33.0900   55.2200 ca        50 PET     -0.163574
   1086 C2         20.4500   32.2600   55.2500 c         50 PET      0.825469
   1087 C3         22.8300   32.6000   55.4400 c3        50 PET      0.058627
   1088 C4         23.3300   33.1800   54.1300 c3        50 PET      0.058627
   1089 O1         15.6800   36.3400   53.9200 os        50 PET     -0.411922
   1090 O2         14.3900   34.8100   55.0600 o         50 PET     -0.591068
   1091 O3         20.5400   31.0600   54.9600 o         50 PET     -0.591068
   1092 O4         21.5100   32.9800   55.7500 os        50 PET     -0.411922
   1093 HA2        15.8300   32.6200   55.1100 ha        50 PET      0.129090
   1094 HA3        17.9400   31.3300   55.1300 ha        50 PET      0.145907
   1095 HA4        18.0300   36.3900   55.0000 ha        50 PET      0.145907
   1096 HA5        20.1100   35.1200   55.2500 ha        50 PET      0.129090
   1097 H31        23.4800   33.0100   56.2100 h1        50 PET      0.097188
   1098 H32        22.9000   31.5000   55.4200 h1        50 PET      0.097188
   1099 H41        23.2700   34.2600   54.3300 h1        50 PET      0.097188
   1100 H42        22.7200   32.8900   53.2700 h1        50 PET      0.097188
   1101 C1         25.3600   32.7300   52.9000 c         51 PET      0.825469
   1102 CA1        26.8900   32.5700   53.1300 ca        51 PET     -0.163574
   1103 CA2        27.6200   31.9800   52.1300 ca        51 PET     -0.108363
   1104 CA3        29.0600   31.9200   52.1600 ca        51 PET     -0.078542
   1105 CA4        27.5800   33.1900   54.1600 ca        51 PET     -0.078542
   1106 CA5        28.9500   33.0000   54.3200 ca        51 PET     -0.108363
   1107 CA6        29.7300   32.4100   53.3100 ca        51 PET     -0.163574
   1108 C2         31.2000   32.3000   53.3600 c         51 PET      0.825469
   1109 C3         33.2500   31.5600   52.2000 c3        51 PET      0.058627
   1110 C4         33.4900   30.2600   52.8600 c3        51 PET      0.058627
   1111 O1         24.7100   32.9300   54.0800 os        51 PET     -0.411922
   1112 O2         24.8400   32.6000   51.7800 o         51 PET     -0.591068
   1113 O3         31.8200   32.5300   54.3800 o         51 PET     -0.591068
   1114 O4         31.8200   31.8500   52.1800 os        51 PET     -0.411922
   1115 HA2        27.0500   31.6400   51.2700 ha        51 PET      0.129090
   1116 HA3        29.6600   31.6500   51.2900 ha        51 PET      0.145907
   1117 HA4        27.0800   33.6900   54.9800 ha        51 PET      0.145907
   1118 HA5        29.5100   33.3400   55.1800 ha        51 PET      0.129090
   1119 H31        33.7600   31.5300   51.2300 h1        51 PET      0.097188
   1120 H32        33.7900   32.3000   52.8000 h1        51 PET      0.097188
   1121 H41        33.0500   29.4600   52.2500 h1        51 PET      0.097188
   1122 H42        32.9900   30.2500   53.8400 h1        51 PET      0.097188
   1123 C1         35.6300   29.0200   53.0100 c         52 PET      0.825469
   1124 CA1        37.1000   29.2400   52.9000 ca        52 PET     -0.163574
   1125 CA2        37.7300   30.4800   53.0200 ca        52 PET     -0.108363
   1126 CA3        39.1000   30.5600   52.7900 ca        52 PET     -0.078542
   1127 CA4        37.8200   28.1200   52.5300 ca        52 PET     -0.078542
   1128 CA5        39.2300   28.1500   52.3800 ca        52 PET     -0.108363
   1129 CA6        39.8900   29.4400   52.4300 ca        52 PET     -0.163574
   1130 C2         41.4200   29.5600   52.1300 c         52 PET      0.825469
   1131 C3         43.3200   31.0300   51.9900 c3        52 PET      0.058627
   1132 C4         43.3800   32.5300   51.8800 c3        52 PET      0.058627
   1133 O1         34.9300   30.2400   53.0700 os        52 PET     -0.411922
   1134 O2         35.0900   27.9500   52.8900 o         52 PET     -0.591068
   1135 O3         42.1600   28.6500   51.8600 o         52 PET     -0.591068
   1136 O4         41.8900   30.8200   52.2100 os        52 PET     -0.411922
   1137 HA2        37.1800   31.3900   53.2400 ha        52 PET      0.129090
   1138 HA3        39.5300   31.5500   52.8900 ha        52 PET      0.145907
   1139 HA4        37.3200   27.1500   52.4800 ha        52 PET      0.145907
   1140 HA5        39.7100   27.2200   52.1000 ha        52 PET      0.129090
   1141 H31        43.9200   30.6300   52.8100 h1        52 PET      0.097188
   1142 H32        43.5300   30.5700   51.0200 h1        52 PET      0.097188
   1143 H41        42.8400   33.0700   52.6600 h1        52 PET      0.097188
   1144 H42        42.9800   32.9300   50.9400 h1        52 PET      0.097188
   1145 C1         45.0600   34.2700   52.2500 c         53 PET      0.825469
   1146 CA1        46.5000   34.6900   52.1100 ca        53 PET     -0.163574
   1147 CA2        46.7300   36.0300   52.0400 ca        53 PET     -0.108363
   1148 CA3        47.9800   36.5800   51.9300 ca        53 PET     -0.078542
   1149 CA4        47.5800   33.7800   51.9700 ca        53 PET     -0.078542
   1150 CA5        48.8700   34.3200   51.9200 ca        53 PET     -0.108363
   1151 CA6        49.1100   35.7400   51.9000 ca        53 PET     -0.163574
   1152 C2         50.5000   36.2800   51.7400 c         53 PET      0.825469
   1153 C3         51.7800   38.3500   52.0200 c3        53 PET      0.058627
   1154 C4         51.4700   39.7000   52.4200 c3        53 PET      0.058627
   1155 O1         44.8100   32.9600   51.8900 os        53 PET     -0.411922
   1156 O2         44.2100   35.0200   52.6400 o         53 PET     -0.591068
   1157 O3         51.5100   35.5700   51.6500 o         53 PET     -0.591068
   1158 O4         50.5100   37.6100   51.9000 os        53 PET     -0.411922
   1159 HA2        45.8800   36.7000   52.0300 ha        53 PET      0.129090
   1160 HA3        48.1300   37.6400   51.7500 ha        53 PET      0.145907
   1161 HA4        47.3900   32.7300   51.7900 ha        53 PET      0.145907
   1162 HA5        49.7800   33.7400   51.7600 ha        53 PET      0.129090
   1163 H31        52.3500   37.8500   52.8200 h1        53 PET      0.097188
   1164 H32        52.3900   38.3000   51.1100 h1        53 PET      0.097188
   1165 H41        50.9900   39.6500   53.4100 h1        53 PET      0.097188
   1166 H42        50.6800   40.0000   51.7200 h1        53 PET      0.097188
   1167 C1         52.2800   41.9700   52.4200 c         54 PET      0.825469
   1168 CA1        53.5400   42.8900   52.5600 ca        54 PET     -0.163574
   1169 CA2        53.4100   44.3000   52.6300 ca        54 PET     -0.108363
   1170 CA3        54.6000   45.1300   52.6400 ca        54 PET     -0.078542
   1171 CA4        54.8600   42.3700   52.4100 ca        54 PET     -0.078542
   1172 CA5        55.9600   43.1700   52.2900 ca        54 PET     -0.108363
   1173 CA6        55.8600   44.5500   52.4500 ca        54 PET     -0.163574
   1174 C2         57.1000   45.4500   52.2300 c         54 PET      0.825469
   1175 C3         59.5000   45.4100   51.6400 c3        54 PET      0.058627
   1176 C4         60.0500   46.3800   52.8300 c3        54 PET      0.058627
   1177 O1         52.5800   40.6400   52.2800 os        54 PET     -0.411922
   1178 O2         51.1200   42.4000   52.4100 o         54 PET     -0.591068
   1179 O3         57.0000   46.7000   52.2600 o         54 PET     -0.591068
   1180 O4         58.2700   44.7400   51.9700 os        54 PET     -0.411922
   1181 HA2        52.4400   44.7800   52.6100 ha        54 PET      0.129090
   1182 HA3        54.5000   46.2100   52.7300 ha        54 PET      0.145907
   1183 HA4        54.9800   41.2900   52.3200 ha        54 PET      0.145907
   1184 HA5        56.9400   42.7300   52.1300 ha        54 PET      0.129090
   1185 H31        60.2700   44.6500   51.4800 h1        54 PET      0.097188
   1186 H32        59.4000   45.9200   50.6700 h1        54 PET      0.097188
   1187 H41        60.1800   45.7000   53.6900 h1        54 PET      0.097188
   1188 H42        59.3600   47.2100   53.0300 h1        54 PET      0.097188
   1189 C1         61.2200   48.3700   52.0000 c         55 PET      0.825469
   1190 CA1        62.5100   49.1600   52.1500 ca        55 PET     -0.163574
   1191 CA2        63.7400   48.5200   52.3900 ca        55 PET     -0.108363
   1192 CA3        64.9300   49.2400   52.4000 ca        55 PET     -0.078542
   1193 CA4        62.4600   50.5600   52.0000 ca        55 PET     -0.078542
   1194 CA5        63.6700   51.3100   52.1100 ca        55 PET     -0.108363
   1195 CA6        64.9100   50.6400   52.3100 ca        55 PET     -0.163574
   1196 C2         66.2600   51.3900   52.3200 c         55 PET      0.825469
   1197 C3         67.1700   53.6100   52.9700 c3        55 PET      0.058627
   1198 C4         68.1200   53.7000   51.7900 c3        55 PET      0.058627
   1199 O1         61.3100   47.0500   52.4900 os        55 PET     -0.411922
   1200 O2         60.1900   48.8400   51.5300 o         55 PET     -0.591068
   1201 O3         67.3400   50.8100   52.2800 o         55 PET     -0.591068
   1202 O4         66.1000   52.6900   52.6500 os        55 PET     -0.411922
   1203 HA2        63.7900   47.4400   52.3400 ha        55 PET      0.129090
   1204 HA3        65.8800   48.7100   52.4100 ha        55 PET      0.145907
   1205 HA4        61.5000   50.9900   51.7500 ha        55 PET      0.145907
   1206 HA5        63.5600   52.3800   51.9200 ha        55 PET      0.129090
   1207 H31        66.7600   54.5900   53.2400 h1        55 PET      0.097188
   1208 H32        67.6100   53.2100   53.8900 h1        55 PET      0.097188
   1209 H41        67.4900   54.0900   50.9900 h1        55 PET      0.097188
   1210 H42        68.4000   52.6700   51.5100 h1        55 PET      0.097188
   1211 C1         69.0900   55.9400   51.9500 c         56 PET      0.825469
   1212 CA1        70.3000   56.7000   52.2900 ca        56 PET     -0.163574
   1213 CA2        70.3100   58.1100   52.1300 ca        56 PET     -0.108363
   1214 CA3        71.4200   58.9200   52.4300 ca        56 PET     -0.078542
   1215 CA4        71.5600   56.1000   52.6300 ca        56 PET     -0.078542
   1216 CA5        72.7100   56.8700   52.8300 ca        56 PET     -0.108363
   1217 CA6        72.6300   58.2600   52.7500 ca        56 PET     -0.163574
   1218 C2         73.9100   59.1900   52.8000 c         56 PET      0.825469
   1219 C3         76.3900   59.1800   53.1100 c3        56 PET      0.058627
   1220 C4         77.1900   59.1600   51.7000 c3        56 PET      0.058627
   1221 O1         69.3400   54.5700   51.9900 os        56 PET     -0.411922
   1222 O2         68.0900   56.5500   51.5400 o         56 PET     -0.591068
   1223 O3         73.8400   60.4100   52.8000 o         56 PET     -0.591068
   1224 O4         75.1300   58.4700   52.8600 os        56 PET     -0.411922
   1225 HA2        69.3600   58.5300   51.8300 ha        56 PET      0.129090
   1226 HA3        71.3600   60.0000   52.3800 ha        56 PET      0.145907
   1227 HA4        71.7000   55.0400   52.7800 ha        56 PET      0.145907
   1228 HA5        73.6400   56.3500   53.0300 ha        56 PET      0.129090
   1229 H31        76.2400   60.2200   53.4300 h1        56 PET      0.097188
   1230 H32        77.0400   58.6400   53.8100 h1        56 PET      0.097188
   1231 H41        76.7300   59.7800   50.9300 h1        56 PET      0.097188
   1232 H42        77.3600   58.1500   51.3100 h1        56 PET      0.097188
   1233 C1         -1.1500   60.9400   51.9800 c         57 PET      0.825469
   1234 CA1         0.3400   61.3300   52.1000 ca        57 PET     -0.163574
   1235 CA2         1.2200   60.3700   52.5400 ca        57 PET     -0.108363
   1236 CA3         2.5400   60.6400   52.7800 ca        57 PET     -0.078542
   1237 CA4         0.8100   62.6400   51.7300 ca        57 PET     -0.078542
   1238 CA5         2.1900   62.8600   51.8700 ca        57 PET     -0.108363
   1239 CA6         3.0400   61.8400   52.3700 ca        57 PET     -0.163574
   1240 C2          4.5500   62.2100   52.5500 c         57 PET      0.825469
   1241 C3          6.5200   61.4100   53.7700 c3        57 PET      0.058627
   1242 C4          7.6300   61.5200   52.6300 c3        57 PET      0.058627
   1243 O1         -1.4300   59.6000   51.9700 os        57 PET     -0.411922
   1244 O2         -2.0500   61.7800   51.8400 o         57 PET     -0.591068
   1245 O3          5.0500   63.2100   52.0500 o         57 PET     -0.591068
   1246 O4          5.2200   61.1900   53.2300 os        57 PET     -0.411922
   1247 HA2         0.9200   59.3400   52.7300 ha        57 PET      0.129090
   1248 HA3         3.1400   59.7900   53.0900 ha        57 PET      0.145907
   1249 HA4         0.2000   63.4200   51.2800 ha        57 PET      0.145907
   1250 HA5         2.5800   63.8300   51.5900 ha        57 PET      0.129090
   1251 H31         6.6000   62.4300   54.1500 h1        57 PET      0.097188
   1252 H32         6.8200   60.7100   54.5600 h1        57 PET      0.097188
   1253 H41         7.2500   61.1700   51.6700 h1        57 PET      0.097188
   1254 H42         8.4800   60.9000   52.9400 h1        57 PET      0.097188
   1255 C1          9.0400   63.4400   52.0100 c         58 PET      0.825469
   1256 CA1         8.9200   64.9500   51.9500 ca        58 PET     -0.163574
   1257 CA2         7.6900   65.5700   52.0700 ca        58 PET     -0.108363
   1258 CA3         7.5000   66.9600   52.1900 ca        58 PET     -0.078542
   1259 CA4        10.0400   65.8400   51.9500 ca        58 PET     -0.078542
   1260 CA5         9.8500   67.2800   52.0600 ca        58 PET     -0.108363
   1261 CA6         8.5500   67.8000   52.0800 ca        58 PET     -0.163574
   1262 C2          8.3000   69.2900   52.1900 c         58 PET      0.825469
   1263 C3          9.3600   71.4400   52.4700 c3        58 PET      0.058627
   1264 C4         10.6400   72.1400   52.1400 c3        58 PET      0.058627
   1265 O1          7.9200   62.9400   52.5700 os        58 PET     -0.411922
   1266 O2         10.0400   62.8100   51.7400 o         58 PET     -0.591068
   1267 O3          7.2300   69.8400   52.0600 o         58 PET     -0.591068
   1268 O4          9.4600   70.0500   52.3700 os        58 PET     -0.411922
   1269 HA2         6.7600   65.0100   52.0700 ha        58 PET      0.129090
   1270 HA3         6.5100   67.4200   52.2300 ha        58 PET      0.145907
   1271 HA4        11.0100   65.3600   51.8600 ha        58 PET      0.145907
   1272 HA5        10.7200   67.9300   52.0400 ha        58 PET      0.129090
   1273 H31         8.4800   71.8900   51.9900 h1        58 PET      0.097188
   1274 H32         9.2000   71.7700   53.5100 h1        58 PET      0.097188
   1275 H41        10.8600   73.0000   52.7900 h1        58 PET      0.097188
   1276 H42        10.6100   72.6400   51.1600 h1        58 PET      0.097188
   1277 C1         13.0700   71.5800   51.7800 c         59 PET      0.825469
   1278 CA1        14.0200   70.3900   51.7300 ca        59 PET     -0.163574
   1279 CA2        13.7000   69.0400   51.5100 ca        59 PET     -0.108363
   1280 CA3        14.6400   67.9900   51.7200 ca        59 PET     -0.078542
   1281 CA4        15.4000   70.6100   52.0900 ca        59 PET     -0.078542
   1282 CA5        16.3800   69.5600   52.1900 ca        59 PET     -0.108363
   1283 CA6        15.9700   68.2300   52.0400 ca        59 PET     -0.163574
   1284 C2         17.0000   67.1100   52.2400 c         59 PET      0.825469
   1285 C3         19.1600   66.5600   53.1900 c3        59 PET      0.058627
   1286 C4         19.9100   66.8100   51.8200 c3        59 PET      0.058627
   1287 O1         11.7500   71.2100   51.9700 os        59 PET     -0.411922
   1288 O2         13.4600   72.7200   51.8900 o         59 PET     -0.591068
   1289 O3         16.8500   66.0300   51.7100 o         59 PET     -0.591068
   1290 O4         18.0000   67.4600   53.1000 os        59 PET     -0.411922
   1291 HA2        12.7000   68.8000   51.1600 ha        59 PET      0.129090
   1292 HA3        14.3200   66.9600   51.5800 ha        59 PET      0.145907
   1293 HA4        15.7000   71.6400   52.2600 ha        59 PET      0.145907
   1294 HA5        17.3900   69.7900   52.5000 ha        59 PET      0.129090
   1295 H31        19.7900   66.8300   54.0500 h1        59 PET      0.097188
   1296 H32        18.8600   65.5000   53.2000 h1        59 PET      0.097188
   1297 H41        19.2100   67.1200   51.0300 h1        59 PET      0.097188
   1298 H42        20.2700   65.8700   51.3700 h1        59 PET      0.097188
   1299 C1         22.2000   67.3100   52.3600 c         60 PET      0.825469
   1300 CA1        23.2800   68.3700   52.1600 ca        60 PET     -0.163574
   1301 CA2        24.6600   68.0500   52.1200 ca        60 PET     -0.108363
   1302 CA3        25.6500   69.0000   52.1600 ca        60 PET     -0.078542
   1303 CA4        22.9300   69.7900   52.2200 ca        60 PET     -0.078542
   1304 CA5        23.9900   70.7200   52.2200 ca        60 PET     -0.108363
   1305 CA6        25.3100   70.3600   52.0900 ca        60 PET     -0.163574
   1306 C2         26.5000   71.3900   52.1400 c         60 PET      0.825469
   1307 C3         26.7800   73.8800   52.0400 c3        60 PET      0.058627
   1308 C4         27.4000   73.8700   53.4300 c3        60 PET      0.058627
   1309 O1         20.9700   67.7600   51.9500 os        60 PET     -0.411922
   1310 O2         22.5000   66.2200   52.8100 o         60 PET     -0.591068
   1311 O3         27.6800   71.1200   52.2700 o         60 PET     -0.591068
   1312 O4         26.0500   72.6500   51.8800 os        60 PET     -0.411922
   1313 HA2        24.9500   67.0200   51.9600 ha        60 PET      0.129090
   1314 HA3        26.7100   68.7600   52.1800 ha        60 PET      0.145907
   1315 HA4        21.9100   70.1500   52.2000 ha        60 PET      0.145907
   1316 HA5        23.8100   71.7900   52.2500 ha        60 PET      0.129090
   1317 H31        27.6000   74.0100   51.3200 h1        60 PET      0.097188
   1318 H32        26.0600   74.7100   51.9800 h1        60 PET      0.097188
   1319 H41        28.3600   73.3500   53.3700 h1        60 PET      0.097188
   1320 H42        27.4900   74.8700   53.8800 h1        60 PET      0.097188
   1321 C1         36.2300   17.6100   68.7100 c         61 PET      0.825469
   1322 CA1        34.7000   17.7600   68.8400 ca        61 PET     -0.163574
   1323 CA2        33.8800   16.6100   68.6800 ca        61 PET     -0.108363
   1324 CA3        32.5000   16.7300   68.7000 ca        61 PET     -0.078542
   1325 CA4        34.0900   19.0700   68.9100 ca        61 PET     -0.078542
   1326 CA5        32.6900   19.1400   68.7500 ca        61 PET     -0.108363
   1327 CA6        31.9000   17.9800   68.6300 ca        61 PET     -0.163574
   1328 C2         30.4100   18.1000   68.5100 c         61 PET      0.825469
   1329 C3         28.3800   16.7700   68.2500 c3        61 PET      0.058627
   1330 C4         28.1400   16.5400   66.8300 c3        61 PET      0.058627
   1331 O1         36.6500   16.2800   68.7400 os        61 PET     -0.411922
   1332 O2         36.9500   18.5800   68.6500 o         61 PET     -0.591068
   1333 O3         29.8700   19.1900   68.5100 o         61 PET     -0.591068
   1334 O4         29.8300   16.8400   68.4900 os        61 PET     -0.411922
   1335 HA2        34.2600   15.6000   68.7800 ha        61 PET      0.129090
   1336 HA3        31.9200   15.8100   68.6700 ha        61 PET      0.145907
   1337 HA4        34.7400   19.9300   68.8600 ha        61 PET      0.145907
   1338 HA5        32.2000   20.0900   68.5400 ha        61 PET      0.129090
   1339 H31        27.9400   15.9200   68.7900 h1        61 PET      0.097188
   1340 H32        27.9300   17.7000   68.6200 h1        61 PET      0.097188
   1341 H41        27.1900   16.0000   66.7100 h1        61 PET      0.097188
   1342 H42        29.0100   16.0000   66.4500 h1        61 PET      0.097188
   1343 C1         26.7700   18.5300   66.2900 c         62 PET      0.825469
   1344 CA1        26.8400   19.8900   65.7300 ca        62 PET     -0.163574
   1345 CA2        25.6400   20.6600   65.6200 ca        62 PET     -0.108363
   1346 CA3        25.6900   22.0400   65.3700 ca        62 PET     -0.078542
   1347 CA4        28.0600   20.5600   65.6200 ca        62 PET     -0.078542
   1348 CA5        28.1000   21.9300   65.3700 ca        62 PET     -0.108363
   1349 CA6        26.9700   22.6800   65.2300 ca        62 PET     -0.163574
   1350 C2         27.0000   24.1400   64.7800 c         62 PET      0.825469
   1351 C3         28.4400   25.7200   63.5900 c3        62 PET      0.058627
   1352 C4         28.5700   26.7400   64.7300 c3        62 PET      0.058627
   1353 O1         28.0200   17.8600   66.2300 os        62 PET     -0.411922
   1354 O2         25.6900   17.9900   66.6200 o         62 PET     -0.591068
   1355 O3         26.0200   24.8300   64.7900 o         62 PET     -0.591068
   1356 O4         28.2200   24.4400   64.2600 os        62 PET     -0.411922
   1357 HA2        24.7100   20.1500   65.8200 ha        62 PET      0.129090
   1358 HA3        24.8200   22.6900   65.3300 ha        62 PET      0.145907
   1359 HA4        28.9900   20.0100   65.6400 ha        62 PET      0.145907
   1360 HA5        29.0700   22.3800   65.1400 ha        62 PET      0.129090
   1361 H31        29.3000   25.6000   62.9200 h1        62 PET      0.097188
   1362 H32        27.5300   25.9100   63.0200 h1        62 PET      0.097188
   1363 H41        29.5400   27.2400   64.6600 h1        62 PET      0.097188
   1364 H42        28.3700   26.2400   65.6900 h1        62 PET      0.097188
   1365 C1         27.7700   28.8800   63.8600 c         63 PET      0.825469
   1366 CA1        26.5300   29.3700   63.1600 ca        63 PET     -0.163574
   1367 CA2        25.3800   28.5300   63.1700 ca        63 PET     -0.108363
   1368 CA3        24.2400   28.9300   62.5700 ca        63 PET     -0.078542
   1369 CA4        26.3600   30.5400   62.4900 ca        63 PET     -0.078542
   1370 CA5        25.2100   31.0000   61.8900 ca        63 PET     -0.108363
   1371 CA6        24.0800   30.1600   61.8700 ca        63 PET     -0.163574
   1372 C2         22.8500   30.6000   61.1500 c         63 PET      0.825469
   1373 C3         21.8300   32.3300   59.6800 c3        63 PET      0.058627
   1374 C4         22.1800   33.6600   59.0900 c3        63 PET      0.058627
   1375 O1         27.5300   27.7300   64.6500 os        63 PET     -0.411922
   1376 O2         28.8800   29.3400   63.7500 o         63 PET     -0.591068
   1377 O3         21.7900   30.0100   60.9900 o         63 PET     -0.591068
   1378 O4         22.9300   31.8200   60.5200 os        63 PET     -0.411922
   1379 HA2        25.2700   27.6900   63.8600 ha        63 PET      0.129090
   1380 HA3        23.3400   28.3200   62.6600 ha        63 PET      0.145907
   1381 HA4        27.2400   31.1700   62.4000 ha        63 PET      0.145907
   1382 HA5        25.0600   31.9500   61.3800 ha        63 PET      0.129090
   1383 H31        21.7000   31.6500   58.8400 h1        63 PET      0.097188
   1384 H32        20.8500   32.4000   60.1800 h1        63 PET      0.097188
   1385 H41        22.2300   34.4200   59.8700 h1        63 PET      0.097188
   1386 H42        21.2900   33.9100   58.5000 h1        63 PET      0.097188
   1387 C1         23.7500   34.8600   57.8300 c         64 PET      0.825469
   1388 CA1        25.1700   34.9000   57.4900 ca        64 PET     -0.163574
   1389 CA2        26.0800   33.9100   57.8000 ca        64 PET     -0.108363
   1390 CA3        27.4800   34.0500   57.7200 ca        64 PET     -0.078542
   1391 CA4        25.7600   36.0600   56.8600 ca        64 PET     -0.078542
   1392 CA5        27.1700   36.1300   56.5800 ca        64 PET     -0.108363
   1393 CA6        28.0500   35.1800   57.0900 ca        64 PET     -0.163574
   1394 C2         29.5400   35.4100   56.8900 c         64 PET      0.825469
   1395 C3         31.8100   34.6800   57.5200 c3        64 PET      0.058627
   1396 C4         32.3900   34.2900   58.8200 c3        64 PET      0.058627
   1397 O1         23.4000   33.6400   58.3000 os        64 PET     -0.411922
   1398 O2         22.9800   35.7500   57.6400 o         64 PET     -0.591068
   1399 O3         30.0100   36.0700   55.9600 o         64 PET     -0.591068
   1400 O4         30.3800   34.7000   57.7700 os        64 PET     -0.411922
   1401 HA2        25.6800   33.0100   58.2500 ha        64 PET      0.129090
   1402 HA3        28.1000   33.2600   58.1300 ha        64 PET      0.145907
   1403 HA4        25.1000   36.8400   56.5100 ha        64 PET      0.145907
   1404 HA5        27.4900   37.0400   56.0800 ha        64 PET      0.129090
   1405 H31        32.0700   33.9300   56.7600 h1        64 PET      0.097188
   1406 H32        32.2200   35.6400   57.1800 h1        64 PET      0.097188
   1407 H41        31.9900   33.3300   59.1700 h1        64 PET      0.097188
   1408 H42        32.3300   35.0000   59.6600 h1        64 PET      0.097188
   1409 C1         34.5800   33.8000   59.6500 c         65 PET      0.825469
   1410 CA1        36.0000   34.2800   59.5400 ca        65 PET     -0.163574
   1411 CA2        36.2300   35.3400   58.6700 ca        65 PET     -0.108363
   1412 CA3        37.5400   35.7100   58.4000 ca        65 PET     -0.078542
   1413 CA4        37.0400   33.6800   60.3200 ca        65 PET     -0.078542
   1414 CA5        38.3200   34.0600   60.0900 ca        65 PET     -0.108363
   1415 CA6        38.6100   35.0300   59.0700 ca        65 PET     -0.163574
   1416 C2         40.0300   35.3800   58.7700 c         65 PET      0.825469
   1417 C3         41.5000   37.0700   58.2800 c3        65 PET      0.058627
   1418 C4         41.4800   38.5300   57.6800 c3        65 PET      0.058627
   1419 O1         33.7900   34.1300   58.6300 os        65 PET     -0.411922
   1420 O2         34.1700   33.2200   60.5900 o         65 PET     -0.591068
   1421 O3         40.9300   34.5900   58.7500 o         65 PET     -0.591068
   1422 O4         40.1500   36.6600   58.4500 os        65 PET     -0.411922
   1423 HA2        35.4400   35.8900   58.1700 ha        65 PET      0.129090
   1424 HA3        37.7900   36.3900   57.5900 ha        65 PET      0.145907
   1425 HA4        36.8000   32.9600   61.0900 ha        65 PET      0.145907
   1426 HA5        39.1700   33.5800   60.5600 ha        65 PET      0.129090
   1427 H31        42.0800   37.0700   59.2100 h1        65 PET      0.097188
   1428 H32        42.1000   36.4000   57.6500 h1        65 PET      0.097188
   1429 H41        40.8300   39.2100   58.2400 h1        65 PET      0.097188
   1430 H42        41.1300   38.3100   56.6700 h1        65 PET      0.097188
   1431 C1         43.2100   40.0700   56.8700 c         66 PET      0.825469
   1432 CA1        44.7500   40.3800   56.9000 ca        66 PET     -0.163574
   1433 CA2        45.2900   41.4600   56.1800 ca        66 PET     -0.108363
   1434 CA3        46.6800   41.7000   56.0600 ca        66 PET     -0.078542
   1435 CA4        45.6500   39.5600   57.6000 ca        66 PET     -0.078542
   1436 CA5        47.0300   39.8200   57.5300 ca        66 PET     -0.108363
   1437 CA6        47.5800   40.8400   56.7600 ca        66 PET     -0.163574
   1438 C2         49.0700   41.1600   56.7400 c         66 PET      0.825469
   1439 C3         50.8200   42.5900   55.9600 c3        66 PET      0.058627
   1440 C4         50.9300   43.9200   55.3000 c3        66 PET      0.058627
   1441 O1         42.8500   39.0200   57.6700 os        66 PET     -0.411922
   1442 O2         42.4500   40.6700   56.1400 o         66 PET     -0.591068
   1443 O3         49.8400   40.6100   57.5600 o         66 PET     -0.591068
   1444 O4         49.4400   42.1900   55.8900 os        66 PET     -0.411922
   1445 HA2        44.6900   42.0700   55.5100 ha        66 PET      0.129090
   1446 HA3        47.1100   42.5800   55.5900 ha        66 PET      0.145907
   1447 HA4        45.2800   38.8700   58.3500 ha        66 PET      0.145907
   1448 HA5        47.6400   39.2600   58.2400 ha        66 PET      0.129090
   1449 H31        51.2700   42.5900   56.9600 h1        66 PET      0.097188
   1450 H32        51.3600   41.8300   55.3900 h1        66 PET      0.097188
   1451 H41        50.0800   44.5700   55.5400 h1        66 PET      0.097188
   1452 H42        50.8400   43.7300   54.2200 h1        66 PET      0.097188
   1453 C1         52.3000   45.8500   55.3000 c         67 PET      0.825469
   1454 CA1        53.6800   46.3900   55.2800 ca        67 PET     -0.163574
   1455 CA2        53.9600   47.6200   54.7600 ca        67 PET     -0.108363
   1456 CA3        55.2500   48.1100   54.7800 ca        67 PET     -0.078542
   1457 CA4        54.7100   45.5600   55.7800 ca        67 PET     -0.078542
   1458 CA5        56.0400   46.0900   55.8200 ca        67 PET     -0.108363
   1459 CA6        56.3100   47.3100   55.1600 ca        67 PET     -0.163574
   1460 C2         57.7200   47.8700   55.1100 c         67 PET      0.825469
   1461 C3         59.2100   49.8000   54.7300 c3        67 PET      0.058627
   1462 C4         59.9100   49.7900   56.0400 c3        67 PET      0.058627
   1463 O1         52.1200   44.5300   55.6900 os        67 PET     -0.411922
   1464 O2         51.3700   46.5600   54.9000 o         67 PET     -0.591068
   1465 O3         58.6400   47.0900   55.3200 o         67 PET     -0.591068
   1466 O4         57.8800   49.1700   54.7400 os        67 PET     -0.411922
   1467 HA2        53.1800   48.3200   54.4700 ha        67 PET      0.129090
   1468 HA3        55.4400   49.1400   54.5300 ha        67 PET      0.145907
   1469 HA4        54.4800   44.5800   56.1900 ha        67 PET      0.145907
   1470 HA5        56.8700   45.4200   56.0400 ha        67 PET      0.129090
   1471 H31        59.8900   49.3200   54.0200 h1        67 PET      0.097188
   1472 H32        59.1800   50.8500   54.3900 h1        67 PET      0.097188
   1473 H41        59.6400   48.9000   56.6300 h1        67 PET      0.097188
   1474 H42        59.6000   50.7100   56.5500 h1        67 PET      0.097188
   1475 C1         62.0500   50.9800   55.4800 c         68 PET      0.825469
   1476 CA1        63.5800   50.9000   55.5600 ca        68 PET     -0.163574
   1477 CA2        64.2300   52.1100   55.8200 ca        68 PET     -0.108363
   1478 CA3        65.6400   52.0900   55.8100 ca        68 PET     -0.078542
   1479 CA4        64.3300   49.6900   55.3900 ca        68 PET     -0.078542
   1480 CA5        65.7700   49.7600   55.4300 ca        68 PET     -0.108363
   1481 CA6        66.4300   50.9400   55.6300 ca        68 PET     -0.163574
   1482 C2         67.9500   51.1000   55.4800 c         68 PET      0.825469
   1483 C3         69.8200   52.6100   56.1000 c3        68 PET      0.058627
   1484 C4         70.3000   53.1700   54.7700 c3        68 PET      0.058627
   1485 O1         61.3700   49.8000   55.8500 os        68 PET     -0.411922
   1486 O2         61.4700   52.0000   55.1900 o         68 PET     -0.591068
   1487 O3         68.7100   50.2200   55.0300 o         68 PET     -0.591068
   1488 O4         68.4100   52.2200   56.0800 os        68 PET     -0.411922
   1489 HA2        63.7700   53.0300   56.1700 ha        68 PET      0.129090
   1490 HA3        66.1400   53.0500   55.9300 ha        68 PET      0.145907
   1491 HA4        63.9000   48.7000   55.2200 ha        68 PET      0.145907
   1492 HA5        66.3400   48.8400   55.3400 ha        68 PET      0.129090
   1493 H31        69.9700   53.3500   56.9000 h1        68 PET      0.097188
   1494 H32        70.4100   51.7200   56.3300 h1        68 PET      0.097188
   1495 H41        69.8700   54.0900   54.3600 h1        68 PET      0.097188
   1496 H42        69.9900   52.4000   54.0500 h1        68 PET      0.097188
   1497 C1         72.4200   54.2100   55.1800 c         69 PET      0.825469
   1498 CA1        73.8400   53.9500   55.4000 ca        69 PET     -0.163574
   1499 CA2        74.7100   54.9400   55.9500 ca        69 PET     -0.108363
   1500 CA3        76.0900   54.6900   56.0100 ca        69 PET     -0.078542
   1501 CA4        74.3800   52.7000   55.0600 ca        69 PET     -0.078542
   1502 CA5        75.7400   52.4500   55.1600 ca        69 PET     -0.108363
   1503 CA6        76.6100   53.4600   55.5800 ca        69 PET     -0.163574
   1504 C2         78.0700   53.2900   55.8700 c         69 PET      0.825469
   1505 C3         79.8300   51.5100   56.2000 c3        69 PET      0.058627
   1506 C4         80.8300   52.0200   55.0900 c3        69 PET      0.058627
   1507 O1         71.7500   53.1700   54.6900 os        69 PET     -0.411922
   1508 O2         71.8700   55.2200   55.5100 o         69 PET     -0.591068
   1509 O3         78.8300   54.2100   56.1500 o         69 PET     -0.591068
   1510 O4         78.5000   51.9400   55.8200 os        69 PET     -0.411922
   1511 HA2        74.2800   55.8700   56.3100 ha        69 PET      0.129090
   1512 HA3        76.7200   55.4500   56.4800 ha        69 PET      0.145907
   1513 HA4        73.7900   51.8600   54.7000 ha        69 PET      0.145907
   1514 HA5        76.1500   51.4600   54.9400 ha        69 PET      0.129090
   1515 H31        80.1200   51.8100   57.2100 h1        69 PET      0.097188
   1516 H32        79.8900   50.4200   56.2400 h1        69 PET      0.097188
   1517 H41        80.7400   53.1200   55.1000 h1        69 PET      0.097188
   1518 H42        80.5000   51.7200   54.0900 h1        69 PET      0.097188
   1519 C1          2.5400   50.2900   55.1100 c         70 PET      0.825469
   1520 CA1         4.0100   50.1000   54.9900 ca        70 PET     -0.163574
   1521 CA2         4.9000   51.2000   55.2400 ca        70 PET     -0.108363
   1522 CA3         6.2900   51.0100   55.1900 ca        70 PET     -0.078542
   1523 CA4         4.6300   48.9300   54.4900 ca        70 PET     -0.078542
   1524 CA5         6.0100   48.8500   54.2700 ca        70 PET     -0.108363
   1525 CA6         6.8700   49.8000   54.6900 ca        70 PET     -0.163574
   1526 C2          8.4000   49.5900   54.6500 c         70 PET      0.825469
   1527 C3         10.5600   50.7100   54.5000 c3        70 PET      0.058627
   1528 C4         11.0100   50.2900   55.9000 c3        70 PET      0.058627
   1529 O1          2.1900   51.6300   55.2600 os        70 PET     -0.411922
   1530 O2          1.7400   49.4700   54.8300 o         70 PET     -0.591068
   1531 O3          8.8900   48.4900   54.7100 o         70 PET     -0.591068
   1532 O4          9.1100   50.7300   54.5000 os        70 PET     -0.411922
   1533 HA2         4.5100   52.1800   55.5100 ha        70 PET      0.129090
   1534 HA3         6.9700   51.7900   55.5000 ha        70 PET      0.145907
   1535 HA4         4.0700   48.0700   54.1500 ha        70 PET      0.145907
   1536 HA5         6.4700   47.9200   53.9300 ha        70 PET      0.129090
   1537 H31        10.8900   49.9500   53.7900 h1        70 PET      0.097188
   1538 H32        10.9900   51.6700   54.1900 h1        70 PET      0.097188
   1539 H41        10.2100   49.9000   56.5500 h1        70 PET      0.097188
   1540 H42        11.4700   51.1700   56.3700 h1        70 PET      0.097188
   1541 C1         12.3600   48.4800   56.8900 c         71 PET      0.825469
   1542 CA1        13.5400   47.5000   56.7100 ca        71 PET     -0.163574
   1543 CA2        13.7100   46.3500   57.5500 ca        71 PET     -0.108363
   1544 CA3        14.8600   45.5000   57.4300 ca        71 PET     -0.078542
   1545 CA4        14.4800   47.6300   55.6000 ca        71 PET     -0.078542
   1546 CA5        15.7000   46.8600   55.5600 ca        71 PET     -0.108363
   1547 CA6        15.8600   45.7700   56.4700 ca        71 PET     -0.163574
   1548 C2         17.0800   44.9400   56.5100 c         71 PET      0.825469
   1549 C3         19.3200   44.8600   55.4900 c3        71 PET      0.058627
   1550 C4         20.1200   45.4300   56.7500 c3        71 PET      0.058627
   1551 O1         12.0900   49.2900   55.8200 os        71 PET     -0.411922
   1552 O2         11.6800   48.5700   57.9300 o         71 PET     -0.591068
   1553 O3         17.2700   44.0100   57.2200 o         71 PET     -0.591068
   1554 O4         17.9900   45.4100   55.5600 os        71 PET     -0.411922
   1555 HA2        13.0200   46.1100   58.3400 ha        71 PET      0.129090
   1556 HA3        14.9400   44.6700   58.1200 ha        71 PET      0.145907
   1557 HA4        14.3600   48.4700   54.9300 ha        71 PET      0.145907
   1558 HA5        16.4000   47.1800   54.7900 ha        71 PET      0.129090
   1559 H31        19.2500   43.7700   55.4700 h1        71 PET      0.097188
   1560 H32        19.7600   45.2300   54.5600 h1        71 PET      0.097188
   1561 H41        20.1000   44.7100   57.5700 h1        71 PET      0.097188
   1562 H42        19.7400   46.3900   57.1100 h1        71 PET      0.097188
   1563 C1         22.4100   44.6000   56.2100 c         72 PET      0.825469
   1564 CA1        23.8500   44.9800   55.9400 ca        72 PET     -0.163574
   1565 CA2        24.6900   44.1000   55.3200 ca        72 PET     -0.108363
   1566 CA3        26.0700   44.2500   55.0300 ca        72 PET     -0.078542
   1567 CA4        24.4600   46.2300   56.1400 ca        72 PET     -0.078542
   1568 CA5        25.7600   46.4700   55.8400 ca        72 PET     -0.108363
   1569 CA6        26.6800   45.5100   55.3400 ca        72 PET     -0.163574
   1570 C2         28.1400   45.7600   55.0700 c         72 PET      0.825469
   1571 C3         30.2400   44.6800   54.3400 c3        72 PET      0.058627
   1572 C4         30.3500   43.9800   52.9700 c3        72 PET      0.058627
   1573 O1         21.5100   45.6700   56.3500 os        72 PET     -0.411922
   1574 O2         22.0000   43.4400   56.3400 o         72 PET     -0.591068
   1575 O3         28.6900   46.8600   55.1400 o         72 PET     -0.591068
   1576 O4         28.7900   44.6600   54.7000 os        72 PET     -0.411922
   1577 HA2        24.3200   43.1100   55.1100 ha        72 PET      0.129090
   1578 HA3        26.5500   43.4500   54.4800 ha        72 PET      0.145907
   1579 HA4        23.8900   47.0300   56.6100 ha        72 PET      0.145907
   1580 HA5        26.2300   47.3900   56.1600 ha        72 PET      0.129090
   1581 H31        30.5000   45.7400   54.2500 h1        72 PET      0.097188
   1582 H32        30.8700   44.1200   55.0400 h1        72 PET      0.097188
   1583 H41        30.1300   44.7600   52.2200 h1        72 PET      0.097188
   1584 H42        29.7700   43.0500   52.9400 h1        72 PET      0.097188
   1585 C1         32.5500   44.5700   52.2800 c         73 PET      0.825469
   1586 CA1        33.9800   44.2000   52.2100 ca        73 PET     -0.163574
   1587 CA2        34.3500   42.8400   52.1100 ca        73 PET     -0.108363
   1588 CA3        35.7100   42.5200   52.2100 ca        73 PET     -0.078542
   1589 CA4        34.9400   45.2400   52.3600 ca        73 PET     -0.078542
   1590 CA5        36.2800   44.9100   52.4600 ca        73 PET     -0.108363
   1591 CA6        36.6700   43.5700   52.3400 ca        73 PET     -0.163574
   1592 C2         38.1500   43.2000   52.3200 c         73 PET      0.825469
   1593 C3         39.7500   41.3100   52.4500 c3        73 PET      0.058627
   1594 C4         39.9300   39.8300   52.9200 c3        73 PET      0.058627
   1595 O1         31.7900   43.6600   52.8200 os        73 PET     -0.411922
   1596 O2         32.1300   45.6400   51.8600 o         73 PET     -0.591068
   1597 O3         39.0100   43.9100   51.8600 o         73 PET     -0.591068
   1598 O4         38.3500   41.8400   52.5600 os        73 PET     -0.411922
   1599 HA2        33.6200   42.0500   52.0300 ha        73 PET      0.129090
   1600 HA3        35.9700   41.4700   52.1800 ha        73 PET      0.145907
   1601 HA4        34.6100   46.2700   52.3500 ha        73 PET      0.145907
   1602 HA5        37.0400   45.6900   52.4800 ha        73 PET      0.129090
   1603 H31        40.1600   41.5200   51.4600 h1        73 PET      0.097188
   1604 H32        40.3500   41.9200   53.1400 h1        73 PET      0.097188
   1605 H41        39.7000   39.0700   52.1700 h1        73 PET      0.097188
   1606 H42        39.3000   39.7600   53.8100 h1        73 PET      0.097188
   1607 C1         41.7400   38.5100   53.9100 c         74 PET      0.825469
   1608 CA1        43.2500   38.4000   53.9800 ca        74 PET     -0.163574
   1609 CA2        44.1200   39.4300   53.4500 ca        74 PET     -0.108363
   1610 CA3        45.4900   39.3900   53.7500 ca        74 PET     -0.078542
   1611 CA4        43.7500   37.3800   54.7800 ca        74 PET     -0.078542
   1612 CA5        45.1600   37.2900   54.9700 ca        74 PET     -0.108363
   1613 CA6        46.0300   38.2700   54.4700 ca        74 PET     -0.163574
   1614 C2         47.5400   38.1500   54.6200 c         74 PET      0.825469
   1615 C3         49.2800   36.4800   55.1300 c3        74 PET      0.058627
   1616 C4         49.7600   37.0900   56.4700 c3        74 PET      0.058627
   1617 O1         41.3300   39.7100   53.4000 os        74 PET     -0.411922
   1618 O2         41.0300   37.6400   54.3500 o         74 PET     -0.591068
   1619 O3         48.3200   39.0000   54.4300 o         74 PET     -0.591068
   1620 O4         47.9300   36.8100   54.8400 os        74 PET     -0.411922
   1621 HA2        43.7000   40.2600   52.8900 ha        74 PET      0.129090
   1622 HA3        46.1700   40.1200   53.3200 ha        74 PET      0.145907
   1623 HA4        43.0800   36.6500   55.2500 ha        74 PET      0.145907
   1624 HA5        45.5100   36.4400   55.5500 ha        74 PET      0.129090
   1625 H31        49.3900   35.3900   55.1500 h1        74 PET      0.097188
   1626 H32        49.9100   36.9000   54.3300 h1        74 PET      0.097188
   1627 H41        50.0800   36.3100   57.1700 h1        74 PET      0.097188
   1628 H42        48.9400   37.6700   56.9000 h1        74 PET      0.097188
   1629 C1         52.0500   37.5000   55.9100 c         75 PET      0.825469
   1630 CA1        53.1600   38.5300   55.8700 ca        75 PET     -0.163574
   1631 CA2        54.3900   38.2600   55.2200 ca        75 PET     -0.108363
   1632 CA3        55.3400   39.2700   55.0100 ca        75 PET     -0.078542
   1633 CA4        52.9300   39.8700   56.3300 ca        75 PET     -0.078542
   1634 CA5        53.8400   40.8300   56.1300 ca        75 PET     -0.108363
   1635 CA6        55.0900   40.5800   55.4800 ca        75 PET     -0.163574
   1636 C2         56.0600   41.6700   55.2600 c         75 PET      0.825469
   1637 C3         58.2700   42.3000   54.7600 c3        75 PET      0.058627
   1638 C4         59.5100   41.7500   54.0700 c3        75 PET      0.058627
   1639 O1         50.8500   37.9800   56.3300 os        75 PET     -0.411922
   1640 O2         52.2700   36.3500   55.6100 o         75 PET     -0.591068
   1641 O3         55.8100   42.8200   55.5200 o         75 PET     -0.591068
   1642 O4         57.2600   41.3200   54.7500 os        75 PET     -0.411922
   1643 HA2        54.6700   37.2500   54.9200 ha        75 PET      0.129090
   1644 HA3        56.3000   39.0700   54.5300 ha        75 PET      0.145907
   1645 HA4        52.0700   40.1800   56.9200 ha        75 PET      0.145907
   1646 HA5        53.6000   41.8500   56.4100 ha        75 PET      0.129090
   1647 H31        57.9500   43.2000   54.2200 h1        75 PET      0.097188
   1648 H32        58.5500   42.5900   55.7800 h1        75 PET      0.097188
   1649 H41        59.2900   41.4200   53.0500 h1        75 PET      0.097188
   1650 H42        59.8100   40.9600   54.7800 h1        75 PET      0.097188
   1651 C1         61.5900   42.7800   53.0800 c         76 PET      0.825469
   1652 CA1        62.7100   43.7600   53.4500 ca        76 PET     -0.163574
   1653 CA2        62.9000   44.2600   54.7600 ca        76 PET     -0.108363
   1654 CA3        64.0800   44.9500   55.0400 ca        76 PET     -0.078542
   1655 CA4        63.6400   44.0700   52.4500 ca        76 PET     -0.078542
   1656 CA5        64.6900   44.9600   52.7300 ca        76 PET     -0.108363
   1657 CA6        65.0300   45.3400   54.0400 ca        76 PET     -0.163574
   1658 C2         66.2100   46.1300   54.4600 c         76 PET      0.825469
   1659 C3         68.2800   47.0500   53.5900 c3        76 PET      0.058627
   1660 C4         68.9500   47.1200   52.2200 c3        76 PET      0.058627
   1661 O1         60.5600   42.8200   53.9800 os        76 PET     -0.411922
   1662 O2         61.6000   41.9900   52.1400 o         76 PET     -0.591068
   1663 O3         66.3900   46.4200   55.6400 o         76 PET     -0.591068
   1664 O4         66.9300   46.5100   53.4300 os        76 PET     -0.411922
   1665 HA2        62.1400   43.9600   55.4800 ha        76 PET      0.129090
   1666 HA3        64.2600   45.2200   56.0800 ha        76 PET      0.145907
   1667 HA4        63.4600   43.7800   51.4200 ha        76 PET      0.145907
   1668 HA5        65.2700   45.2300   51.8500 ha        76 PET      0.129090
   1669 H31        68.2600   47.9700   54.1800 h1        76 PET      0.097188
   1670 H32        68.9300   46.3600   54.1500 h1        76 PET      0.097188
   1671 H41        68.1400   47.1900   51.4700 h1        76 PET      0.097188
   1672 H42        69.4300   46.1600   52.0100 h1        76 PET      0.097188
   1673 C1         71.1900   48.2900   52.7500 c         77 PET      0.825469
   1674 CA1        71.9900   49.5400   52.5100 ca        77 PET     -0.163574
   1675 CA2        71.4700   50.8300   52.2900 ca        77 PET     -0.108363
   1676 CA3        72.3300   51.9300   52.0000 ca        77 PET     -0.078542
   1677 CA4        73.4200   49.4300   52.5000 ca        77 PET     -0.078542
   1678 CA5        74.2900   50.4500   52.1000 ca        77 PET     -0.108363
   1679 CA6        73.7400   51.7200   51.9500 ca        77 PET     -0.163574
   1680 C2         74.5000   53.0100   51.6900 c         77 PET      0.825469
   1681 C3         76.8600   53.9900   51.9200 c3        77 PET      0.058627
   1682 C4         76.5300   55.1600   52.7800 c3        77 PET      0.058627
   1683 O1         69.8800   48.2400   52.1700 os        77 PET     -0.411922
   1684 O2         71.6300   47.3100   53.3800 o         77 PET     -0.591068
   1685 O3         74.1700   54.1200   51.2700 o         77 PET     -0.591068
   1686 O4         75.8100   52.9300   52.1000 os        77 PET     -0.411922
   1687 HA2        70.3900   50.9700   52.1800 ha        77 PET      0.129090
   1688 HA3        71.8700   52.9000   51.8300 ha        77 PET      0.145907
   1689 HA4        73.8500   48.4300   52.5600 ha        77 PET      0.145907
   1690 HA5        75.3600   50.2800   52.0900 ha        77 PET      0.129090
   1691 H31        77.8100   53.5500   52.2400 h1        77 PET      0.097188
   1692 H32        76.8700   54.3300   50.8700 h1        77 PET      0.097188
   1693 H41        75.6900   54.9900   53.4700 h1        77 PET      0.097188
   1694 H42        76.1900   55.8500   52.0000 h1        77 PET      0.097188
   1695 C1         -1.1900   56.1000   52.8800 c         78 PET      0.825469
   1696 CA1        -0.1400   56.6700   53.8500 ca        78 PET     -0.163574
   1697 CA2         1.2000   56.7600   53.4900 ca        78 PET     -0.108363
   1698 CA3         2.1700   57.1900   54.4100 ca        78 PET     -0.078542
   1699 CA4        -0.5000   56.9600   55.1500 ca        78 PET     -0.078542
   1700 CA5         0.4700   57.4700   56.0400 ca        78 PET     -0.108363
   1701 CA6         1.8200   57.6300   55.6900 ca        78 PET     -0.163574
   1702 C2          2.8700   58.0900   56.6800 c         78 PET      0.825469
   1703 C3          2.7700   58.6700   59.0600 c3        78 PET      0.058627
   1704 C4          3.4600   60.0800   59.3100 c3        78 PET      0.058627
   1705 O1         -2.3000   55.6600   53.5100 os        78 PET     -0.411922
   1706 O2         -1.0200   56.0600   51.6500 o         78 PET     -0.591068
   1707 O3          4.0900   57.9600   56.5500 o         78 PET     -0.591068
   1708 O4          2.2500   58.5900   57.7000 os        78 PET     -0.411922
   1709 HA2         1.4600   56.4400   52.4900 ha        78 PET      0.129090
   1710 HA3         3.2000   57.2400   54.0800 ha        78 PET      0.145907
   1711 HA4        -1.5200   56.8200   55.5000 ha        78 PET      0.145907
   1712 HA5         0.0700   57.6300   57.0300 ha        78 PET      0.129090
   1713 H31         2.0000   58.5500   59.8400 h1        78 PET      0.097188
   1714 H32         3.5300   57.8800   59.0700 h1        78 PET      0.097188
   1715 H41         3.7500   60.1800   60.3600 h1        78 PET      0.097188
   1716 H42         2.7300   60.8800   59.1100 h1        78 PET      0.097188
   1717 C1          5.7800   59.5200   58.7400 c         79 PET      0.825469
   1718 CA1         6.9800   59.7400   57.7400 ca        79 PET     -0.163574
   1719 CA2         7.0900   60.9600   57.0000 ca        79 PET     -0.108363
   1720 CA3         8.3000   61.2900   56.3900 ca        79 PET     -0.078542
   1721 CA4         7.9700   58.7300   57.5800 ca        79 PET     -0.078542
   1722 CA5         9.0900   58.9900   56.8700 ca        79 PET     -0.108363
   1723 CA6         9.3000   60.2900   56.2100 ca        79 PET     -0.163574
   1724 C2         10.6600   60.6100   55.7400 c         79 PET      0.825469
   1725 C3         11.9000   61.9000   54.0900 c3        79 PET      0.058627
   1726 C4         12.2400   60.7700   53.0700 c3        79 PET      0.058627
   1727 O1          4.5800   60.2200   58.4400 os        79 PET     -0.411922
   1728 O2          5.9000   58.7300   59.6800 o         79 PET     -0.591068
   1729 O3         11.6800   60.0800   56.1400 o         79 PET     -0.591068
   1730 O4         10.6500   61.5900   54.7700 os        79 PET     -0.411922
   1731 HA2         6.2700   61.6700   57.0900 ha        79 PET      0.129090
   1732 HA3         8.4500   62.2900   55.9900 ha        79 PET      0.145907
   1733 HA4         7.9300   57.8500   58.2100 ha        79 PET      0.145907
   1734 HA5         9.8700   58.2600   56.7200 ha        79 PET      0.129090
   1735 H31        11.7200   62.7300   53.4000 h1        79 PET      0.097188
   1736 H32        12.6700   62.1000   54.8500 h1        79 PET      0.097188
   1737 H41        11.4400   60.6800   52.3200 h1        79 PET      0.097188
   1738 H42        12.2100   59.8700   53.6900 h1        79 PET      0.097188
   1739 C1         14.3400   60.0500   52.0100 c         80 PET      0.825469
   1740 CA1        15.7700   60.5400   51.8500 ca        80 PET     -0.163574
   1741 CA2        16.7900   59.5700   51.7500 ca        80 PET     -0.108363
   1742 CA3        18.1100   59.9400   51.7900 ca        80 PET     -0.078542
   1743 CA4        16.0300   61.8700   51.9200 ca        80 PET     -0.078542
   1744 CA5        17.3400   62.2600   51.7700 ca        80 PET     -0.108363
   1745 CA6        18.4000   61.2700   51.7700 ca        80 PET     -0.163574
   1746 C2         19.8000   61.7500   51.8600 c         80 PET      0.825469
   1747 C3         22.0900   60.9700   52.2300 c3        80 PET      0.058627
   1748 C4         22.8400   59.6800   52.2100 c3        80 PET      0.058627
   1749 O1         13.5300   61.0200   52.6000 os        80 PET     -0.411922
   1750 O2         13.9900   58.9000   51.8100 o         80 PET     -0.591068
   1751 O3         20.1200   62.9400   52.0100 o         80 PET     -0.591068
   1752 O4         20.7600   60.7400   51.8800 os        80 PET     -0.411922
   1753 HA2        16.5600   58.5100   51.8000 ha        80 PET      0.129090
   1754 HA3        18.8700   59.1700   51.7800 ha        80 PET      0.145907
   1755 HA4        15.1800   62.5400   51.9300 ha        80 PET      0.145907
   1756 HA5        17.6400   63.3000   51.8300 ha        80 PET      0.129090
   1757 H31        22.5300   61.6200   51.4600 h1        80 PET      0.097188
   1758 H32        22.2300   61.5800   53.1300 h1        80 PET      0.097188
   1759 H41        22.6400   59.1100   51.2900 h1        80 PET      0.097188
   1760 H42        22.5700   59.0200   53.0400 h1        80 PET      0.097188
   1761 C1         25.1500   58.9900   52.0200 c         81 PET      0.825469
   1762 CA1        26.6500   59.4800   52.1900 ca        81 PET     -0.163574
   1763 CA2        27.7400   58.6300   52.2200 ca        81 PET     -0.108363
   1764 CA3        29.0100   59.1400   52.4200 ca        81 PET     -0.078542
   1765 CA4        26.8100   60.8900   52.3600 ca        81 PET     -0.078542
   1766 CA5        28.1000   61.4300   52.7200 ca        81 PET     -0.108363
   1767 CA6        29.2200   60.5100   52.7400 ca        81 PET     -0.163574
   1768 C2         30.7000   61.0500   53.0000 c         81 PET      0.825469
   1769 C3         33.0900   60.0800   53.2500 c3        81 PET      0.058627
   1770 C4         33.6300   60.9100   52.0500 c3        81 PET      0.058627
   1771 O1         24.2500   60.0500   52.2400 os        81 PET     -0.411922
   1772 O2         24.8300   57.8300   51.8200 o         81 PET     -0.591068
   1773 O3         30.9600   62.2200   53.0500 o         81 PET     -0.591068
   1774 O4         31.6400   59.9900   53.0200 os        81 PET     -0.411922
   1775 HA2        27.6300   57.5600   52.0500 ha        81 PET      0.129090
   1776 HA3        29.8900   58.5000   52.4000 ha        81 PET      0.145907
   1777 HA4        25.9500   61.5500   52.3200 ha        81 PET      0.145907
   1778 HA5        28.2700   62.4800   52.9800 ha        81 PET      0.129090
   1779 H31        33.4200   60.6700   54.1200 h1        81 PET      0.097188
   1780 H32        33.5200   59.0800   53.3500 h1        81 PET      0.097188
   1781 H41        32.9600   61.7100   51.7200 h1        81 PET      0.097188
   1782 H42        33.7800   60.2100   51.2200 h1        81 PET      0.097188
   1783 C1         36.0000   60.7000   52.4800 c         82 PET      0.825469
   1784 CA1        37.2900   61.4400   52.4200 ca        82 PET     -0.163574
   1785 CA2        38.4500   60.6400   52.3200 ca        82 PET     -0.108363
   1786 CA3        39.7000   61.2400   52.2600 ca        82 PET     -0.078542
   1787 CA4        37.3800   62.8400   52.3100 ca        82 PET     -0.078542
   1788 CA5        38.6700   63.4500   52.3100 ca        82 PET     -0.108363
   1789 CA6        39.7900   62.6300   52.3700 ca        82 PET     -0.163574
   1790 C2         41.2700   63.1700   52.2500 c         82 PET      0.825469
   1791 C3         42.7500   65.1100   52.3100 c3        82 PET      0.058627
   1792 C4         42.6000   66.5900   52.4900 c3        82 PET      0.058627
   1793 O1         34.9000   61.5200   52.3700 os        82 PET     -0.411922
   1794 O2         35.9700   59.4800   52.5000 o         82 PET     -0.591068
   1795 O3         42.1800   62.4900   51.9900 o         82 PET     -0.591068
   1796 O4         41.3800   64.5300   52.4500 os        82 PET     -0.411922
   1797 HA2        38.2900   59.5900   52.1000 ha        82 PET      0.129090
   1798 HA3        40.5900   60.6600   52.0600 ha        82 PET      0.145907
   1799 HA4        36.4800   63.4100   52.1400 ha        82 PET      0.145907
   1800 HA5        38.7600   64.5100   52.0900 ha        82 PET      0.129090
   1801 H31        43.4600   64.6800   53.0300 h1        82 PET      0.097188
   1802 H32        43.2300   64.9500   51.3400 h1        82 PET      0.097188
   1803 H41        41.8600   66.6900   53.2900 h1        82 PET      0.097188
   1804 H42        42.1300   67.0200   51.5900 h1        82 PET      0.097188
   1805 C1         44.2000   68.4100   52.5600 c         83 PET      0.825469
   1806 CA1        45.7300   68.6700   52.6000 ca        83 PET     -0.163574
   1807 CA2        46.6300   67.7200   53.0300 ca        83 PET     -0.108363
   1808 CA3        47.9900   67.9400   53.0000 ca        83 PET     -0.078542
   1809 CA4        46.2200   69.9300   52.2500 ca        83 PET     -0.078542
   1810 CA5        47.5500   70.2600   52.3200 ca        83 PET     -0.108363
   1811 CA6        48.4800   69.2400   52.6200 ca        83 PET     -0.163574
   1812 C2         49.9300   69.4300   52.5700 c         83 PET      0.825469
   1813 C3         51.6200   71.2000   52.1800 c3        83 PET      0.058627
   1814 C4         51.8400   72.8000   52.1400 c3        83 PET      0.058627
   1815 O1         43.8800   67.1200   52.8100 os        83 PET     -0.411922
   1816 O2         43.5000   69.3000   52.1500 o         83 PET     -0.591068
   1817 O3         50.7800   68.6200   52.8800 o         83 PET     -0.591068
   1818 O4         50.2300   70.7100   52.2600 os        83 PET     -0.411922
   1819 HA2        46.2800   66.7300   53.3200 ha        83 PET      0.129090
   1820 HA3        48.6800   67.1800   53.3400 ha        83 PET      0.145907
   1821 HA4        45.5800   70.7300   51.8700 ha        83 PET      0.145907
   1822 HA5        47.8100   71.3000   52.1400 ha        83 PET      0.129090
   1823 H31        52.1200   70.8600   53.0900 h1        83 PET      0.097188
   1824 H32        52.0900   70.7800   51.2800 h1        83 PET      0.097188
   1825 H41        51.1500   73.2800   52.8400 h1        83 PET      0.097188
   1826 H42        51.6300   73.0900   51.1100 h1        83 PET      0.097188
   1827 C1         53.7100   74.2600   52.5200 c         84 PET      0.825469
   1828 CA1        55.2200   74.3300   52.6700 ca        84 PET     -0.163574
   1829 CA2        55.8400   75.3900   53.3400 ca        84 PET     -0.108363
   1830 CA3        57.2600   75.5500   53.3400 ca        84 PET     -0.078542
   1831 CA4        55.9900   73.3600   52.0600 ca        84 PET     -0.078542
   1832 CA5        57.3900   73.4800   52.0900 ca        84 PET     -0.108363
   1833 CA6        58.0200   74.5700   52.7000 ca        84 PET     -0.163574
   1834 C2         59.5300   74.6300   52.7800 c         84 PET      0.825469
   1835 C3         61.4400   75.8300   53.6300 c3        84 PET      0.058627
   1836 C4         62.0200   76.3600   52.3400 c3        84 PET      0.058627
   1837 O1         53.2300   73.0000   52.4600 os        84 PET     -0.411922
   1838 O2         53.0300   75.2700   52.6000 o         84 PET     -0.591068
   1839 O3         60.3200   73.7400   52.3900 o         84 PET     -0.591068
   1840 O4         60.0300   75.7900   53.4000 os        84 PET     -0.411922
   1841 HA2        55.2100   76.0900   53.8700 ha        84 PET      0.129090
   1842 HA3        57.6400   76.4500   53.8300 ha        84 PET      0.145907
   1843 HA4        55.5000   72.4800   51.6500 ha        84 PET      0.145907
   1844 HA5        58.0300   72.7500   51.6000 ha        84 PET      0.129090
   1845 H31        61.6400   76.5700   54.4200 h1        84 PET      0.097188
   1846 H32        61.8200   74.8300   53.8800 h1        84 PET      0.097188
   1847 H41        61.4000   77.2200   52.0700 h1        84 PET      0.097188
   1848 H42        61.8900   75.7100   51.4600 h1        84 PET      0.097188
   1849 C1         63.9700   77.6300   51.8000 c         85 PET      0.825469
   1850 CA1        65.3600   77.9400   52.1200 ca        85 PET     -0.163574
   1851 CA2        66.1900   77.0900   52.9300 ca        85 PET     -0.108363
   1852 CA3        67.5000   77.4600   53.2200 ca        85 PET     -0.078542
   1853 CA4        66.0100   79.1700   51.6400 ca        85 PET     -0.078542
   1854 CA5        67.3200   79.4200   51.7800 ca        85 PET     -0.108363
   1855 CA6        68.0800   78.5400   52.5700 ca        85 PET     -0.163574
   1856 C2         69.5800   78.8800   52.6000 c         85 PET      0.825469
   1857 C3         71.6900   77.9800   53.0800 c3        85 PET      0.058627
   1858 C4         72.2900   77.9100   51.6200 c3        85 PET      0.058627
   1859 O1         63.4000   76.6300   52.5300 os        85 PET     -0.411922
   1860 O2         63.3600   78.2500   50.9400 o         85 PET     -0.591068
   1861 O3         70.0700   79.9000   52.2000 o         85 PET     -0.591068
   1862 O4         70.2700   77.8600   52.9700 os        85 PET     -0.411922
   1863 HA2        65.7400   76.2200   53.4000 ha        85 PET      0.129090
   1864 HA3        68.1400   76.7800   53.7700 ha        85 PET      0.145907
   1865 HA4        65.5300   79.8300   50.9300 ha        85 PET      0.145907
   1866 HA5        67.7400   80.2700   51.2500 ha        85 PET      0.129090
   1867 H31        72.0700   78.8100   53.7000 h1        85 PET      0.097188
   1868 H32        72.0100   77.0800   53.6200 h1        85 PET      0.097188
   1869 H41        72.1700   78.8600   51.0800 h1        85 PET      0.097188
   1870 H42        71.6900   77.2100   51.0300 h1        85 PET      0.097188
   1871 C1         74.6800   78.4300   51.7900 c         86 PET      0.825469
   1872 CA1        76.0500   77.9300   51.7400 ca        86 PET     -0.163574
   1873 CA2        76.4200   76.6400   52.0000 ca        86 PET     -0.108363
   1874 CA3        77.7800   76.2300   52.2200 ca        86 PET     -0.078542
   1875 CA4        77.1000   78.8400   51.5700 ca        86 PET     -0.078542
   1876 CA5        78.4900   78.4600   51.7400 ca        86 PET     -0.108363
   1877 CA6        78.8100   77.1700   52.1500 ca        86 PET     -0.163574
   1878 C2         80.2200   76.7600   52.4100 c         86 PET      0.825469
   1879 C3         82.3400   77.6600   52.9200 c3        86 PET      0.058627
   1880 C4         82.5700   76.9600   54.3300 c3        86 PET      0.058627
   1881 O1         73.6800   77.5500   51.6400 os        86 PET     -0.411922
   1882 O2         74.5300   79.6600   51.9200 o         86 PET     -0.591068
   1883 O3         80.7000   75.6100   52.2500 o         86 PET     -0.591068
   1884 O4         80.9700   77.8900   52.7600 os        86 PET     -0.411922
   1885 HA2        75.5700   75.9700   52.0700 ha        86 PET      0.129090
   1886 HA3        78.0200   75.2000   52.4500 ha        86 PET      0.145907
   1887 HA4        76.8500   79.8300   51.1900 ha        86 PET      0.145907
   1888 HA5        79.1900   79.2700   51.5600 ha        86 PET      0.129090
   1889 H31        82.7600   77.1600   52.0400 h1        86 PET      0.097188
   1890 H32        82.7800   78.6700   52.9200 h1        86 PET      0.097188
   1891 H41        82.0900   75.9800   54.2500 h1        86 PET      0.097188
   1892 H42        82.1000   77.4400   55.2000 h1        86 PET      0.097188
   1893 C1          4.7400   77.8900   54.6000 c         87 PET      0.825469
   1894 CA1         6.2200   77.5800   54.8300 ca        87 PET     -0.163574
   1895 CA2         7.1700   78.5300   54.7400 ca        87 PET     -0.108363
   1896 CA3         8.5000   78.3000   54.9000 ca        87 PET     -0.078542
   1897 CA4         6.6400   76.2700   55.0500 ca        87 PET     -0.078542
   1898 CA5         8.0100   75.9800   55.1900 ca        87 PET     -0.108363
   1899 CA6         8.9900   77.0300   55.2000 ca        87 PET     -0.163574
   1900 C2         10.4000   76.8100   55.2800 c         87 PET      0.825469
   1901 C3         12.2500   75.2100   55.6500 c3        87 PET      0.058627
   1902 C4         12.5800   74.4400   54.3500 c3        87 PET      0.058627
   1903 O1          3.9700   76.7700   54.6200 os        87 PET     -0.411922
   1904 O2          4.3200   79.0400   54.4100 o         87 PET     -0.591068
   1905 O3         11.2300   77.6200   54.8700 o         87 PET     -0.591068
   1906 O4         10.7900   75.5800   55.7000 os        87 PET     -0.411922
   1907 HA2         6.9300   79.5600   54.4700 ha        87 PET      0.129090
   1908 HA3         9.2500   79.0800   54.8200 ha        87 PET      0.145907
   1909 HA4         6.0200   75.3800   55.1700 ha        87 PET      0.145907
   1910 HA5         8.3800   74.9700   55.3400 ha        87 PET      0.129090
   1911 H31        12.7800   76.1700   55.6500 h1        87 PET      0.097188
   1912 H32        12.6400   74.7000   56.5400 h1        87 PET      0.097188
   1913 H41        13.6200   74.6900   54.1300 h1        87 PET      0.097188
   1914 H42        11.9500   74.9300   53.6000 h1        87 PET      0.097188
   1915 C1         13.3900   72.3700   55.3600 c         88 PET      0.825469
   1916 CA1        13.3500   70.8800   55.3400 ca        88 PET     -0.163574
   1917 CA2        12.2200   70.1100   54.8800 ca        88 PET     -0.108363
   1918 CA3        12.3300   68.6800   54.7200 ca        88 PET     -0.078542
   1919 CA4        14.5600   70.2000   55.4300 ca        88 PET     -0.078542
   1920 CA5        14.6500   68.7900   55.1200 ca        88 PET     -0.108363
   1921 CA6        13.5500   68.0500   54.8000 ca        88 PET     -0.163574
   1922 C2         13.6200   66.6400   54.4000 c         88 PET      0.825469
   1923 C3         14.9100   64.5800   54.3200 c3        88 PET      0.058627
   1924 C4         16.3200   64.1200   54.7500 c3        88 PET      0.058627
   1925 O1         12.4900   73.0500   54.5000 os        88 PET     -0.411922
   1926 O2         14.1500   72.9900   56.0500 o         88 PET     -0.591068
   1927 O3         12.6400   66.0800   53.8700 o         88 PET     -0.591068
   1928 O4         14.7800   66.0000   54.6700 os        88 PET     -0.411922
   1929 HA2        11.2500   70.5500   54.6700 ha        88 PET      0.129090
   1930 HA3        11.4800   68.1100   54.3500 ha        88 PET      0.145907
   1931 HA4        15.4700   70.7900   55.5300 ha        88 PET      0.145907
   1932 HA5        15.6300   68.3300   55.0400 ha        88 PET      0.129090
   1933 H31        14.1300   64.0300   54.8500 h1        88 PET      0.097188
   1934 H32        14.7700   64.3900   53.2500 h1        88 PET      0.097188
   1935 H41        16.6300   64.5000   55.7300 h1        88 PET      0.097188
   1936 H42        17.1600   64.3600   54.0700 h1        88 PET      0.097188
   1937 C1         17.2300   61.9500   55.0800 c         89 PET      0.825469
   1938 CA1        17.0600   60.4600   55.0800 ca        89 PET     -0.163574
   1939 CA2        15.8400   59.8900   55.0000 ca        89 PET     -0.108363
   1940 CA3        15.6400   58.5600   54.5900 ca        89 PET     -0.078542
   1941 CA4        18.1900   59.6500   54.9600 ca        89 PET     -0.078542
   1942 CA5        18.0200   58.3400   54.5400 ca        89 PET     -0.108363
   1943 CA6        16.7600   57.7600   54.2500 ca        89 PET     -0.163574
   1944 C2         16.6300   56.3400   53.7800 c         89 PET      0.825469
   1945 C3         17.4200   54.5700   52.3600 c3        89 PET      0.058627
   1946 C4         18.7400   53.8800   52.0500 c3        89 PET      0.058627
   1947 O1         16.1300   62.7000   54.7400 os        89 PET     -0.411922
   1948 O2         18.3400   62.4900   55.2200 o         89 PET     -0.591068
   1949 O3         15.6200   55.6700   53.9400 o         89 PET     -0.591068
   1950 O4         17.6800   55.7900   53.1200 os        89 PET     -0.411922
   1951 HA2        15.0000   60.5800   55.1000 ha        89 PET      0.129090
   1952 HA3        14.6100   58.2700   54.4600 ha        89 PET      0.145907
   1953 HA4        19.1800   60.1000   55.0000 ha        89 PET      0.145907
   1954 HA5        18.9700   57.8000   54.5500 ha        89 PET      0.129090
   1955 H31        16.8400   53.8900   53.0000 h1        89 PET      0.097188
   1956 H32        16.9200   54.8200   51.4200 h1        89 PET      0.097188
   1957 H41        19.3600   54.1600   52.9000 h1        89 PET      0.097188
   1958 H42        19.1100   54.2100   51.0700 h1        89 PET      0.097188
   1959 C1         19.2700   51.5000   52.2300 c         90 PET      0.825469
   1960 CA1        18.7100   50.1300   52.2900 ca        90 PET     -0.163574
   1961 CA2        19.5600   49.0300   52.3300 ca        90 PET     -0.108363
   1962 CA3        19.1100   47.7600   52.1500 ca        90 PET     -0.078542
   1963 CA4        17.3400   49.9500   51.9900 ca        90 PET     -0.078542
   1964 CA5        16.8100   48.6900   51.9000 ca        90 PET     -0.108363
   1965 CA6        17.6800   47.5700   51.9500 ca        90 PET     -0.163574
   1966 C2         17.1000   46.1900   51.9400 c         90 PET      0.825469
   1967 C3         17.4100   43.7200   51.7300 c3        90 PET      0.058627
   1968 C4         17.4500   43.1500   53.1500 c3        90 PET      0.058627
   1969 O1         18.3700   52.4500   51.9700 os        90 PET     -0.411922
   1970 O2         20.4900   51.7500   52.3100 o         90 PET     -0.591068
   1971 O3         15.9000   46.0900   52.2000 o         90 PET     -0.591068
   1972 O4         17.9200   45.1400   51.7200 os        90 PET     -0.411922
   1973 HA2        20.6400   49.0800   52.3900 ha        90 PET      0.129090
   1974 HA3        19.7300   46.8700   52.1700 ha        90 PET      0.145907
   1975 HA4        16.7200   50.7600   51.6100 ha        90 PET      0.145907
   1976 HA5        15.7700   48.5200   51.6500 ha        90 PET      0.129090
   1977 H31        16.4100   43.7000   51.2700 h1        90 PET      0.097188
   1978 H32        18.1500   43.1600   51.1600 h1        90 PET      0.097188
   1979 H41        16.8600   42.2300   53.2400 h1        90 PET      0.097188
   1980 H42        17.0300   43.8100   53.9200 h1        90 PET      0.097188
   1981 C1         67.9300   40.9100   60.2700 c         91 PET      0.825469
   1982 CA1        69.4000   41.0300   60.7900 ca        91 PET     -0.163574
   1983 CA2        69.7900   40.5300   62.0400 ca        91 PET     -0.108363
   1984 CA3        71.2400   40.4800   62.3500 ca        91 PET     -0.078542
   1985 CA4        70.3500   41.6900   59.9400 ca        91 PET     -0.078542
   1986 CA5        71.7300   41.8000   60.3100 ca        91 PET     -0.108363
   1987 CA6        72.1700   41.0800   61.4600 ca        91 PET     -0.163574
   1988 C2         73.6200   40.8100   61.7400 c         91 PET      0.825469
   1989 C3         75.8800   40.9100   60.8000 c3        91 PET      0.058627
   1990 C4         76.1400   39.9000   59.6700 c3        91 PET      0.058627
   1991 O1         67.2400   40.0600   61.0200 os        91 PET     -0.411922
   1992 O2         67.5300   41.5900   59.3500 o         91 PET     -0.591068
   1993 O3         74.1300   40.2400   62.6800 o         91 PET     -0.591068
   1994 O4         74.4100   41.2500   60.7400 os        91 PET     -0.411922
   1995 HA2        69.0600   39.9900   62.6400 ha        91 PET      0.129090
   1996 HA3        71.5400   39.8800   63.2100 ha        91 PET      0.145907
   1997 HA4        70.0800   42.1800   59.0100 ha        91 PET      0.145907
   1998 HA5        72.4000   42.1500   59.5400 ha        91 PET      0.129090
   1999 H31        76.4000   41.8600   60.6100 h1        91 PET      0.097188
   2000 H32        76.2200   40.5000   61.7600 h1        91 PET      0.097188
   2001 H41        77.2300   39.8400   59.5700 h1        91 PET      0.097188
   2002 H42        75.7400   40.2800   58.7300 h1        91 PET      0.097188
   2003 C1         75.9800   37.5900   60.5700 c         92 PET      0.825469
   2004 CA1        75.1400   36.3500   60.6300 ca        92 PET     -0.163574
   2005 CA2        73.7100   36.3100   60.3800 ca        92 PET     -0.108363
   2006 CA3        73.0100   35.0800   60.5900 ca        92 PET     -0.078542
   2007 CA4        75.7600   35.1500   61.0700 ca        92 PET     -0.078542
   2008 CA5        75.1100   33.9400   60.9400 ca        92 PET     -0.108363
   2009 CA6        73.7200   33.8500   60.8000 ca        92 PET     -0.163574
   2010 C2         73.0900   32.5000   60.7300 c         92 PET      0.825469
   2011 C3         70.8100   31.5200   60.6500 c3        92 PET      0.058627
   2012 C4         70.9500   31.1800   59.2100 c3        92 PET      0.058627
   2013 O1         75.4900   38.6200   59.8700 os        92 PET     -0.411922
   2014 O2         77.0500   37.7200   61.1700 o         92 PET     -0.591068
   2015 O3         73.6900   31.4100   60.5300 o         92 PET     -0.591068
   2016 O4         71.7300   32.6200   60.8200 os        92 PET     -0.411922
   2017 HA2        73.2000   37.2300   60.1300 ha        92 PET      0.129090
   2018 HA3        71.9700   34.9700   60.3000 ha        92 PET      0.145907
   2019 HA4        76.8300   35.1800   61.2200 ha        92 PET      0.145907
   2020 HA5        75.7500   33.0600   60.9400 ha        92 PET      0.129090
   2021 H31        71.2000   30.6500   61.2000 h1        92 PET      0.097188
   2022 H32        69.7700   31.7500   60.9200 h1        92 PET      0.097188
   2023 H41        71.9700   30.8300   59.0100 h1        92 PET      0.097188
   2024 H42        70.6300   32.0600   58.6300 h1        92 PET      0.097188
   2025 C1         70.1900   28.8500   58.8900 c         93 PET      0.825469
   2026 CA1        68.9900   28.0400   58.7100 ca        93 PET     -0.163574
   2027 CA2        69.0100   26.6200   58.9500 ca        93 PET     -0.108363
   2028 CA3        67.8500   25.8300   58.7800 ca        93 PET     -0.078542
   2029 CA4        67.7700   28.6800   58.3900 ca        93 PET     -0.078542
   2030 CA5        66.6000   27.8800   58.3900 ca        93 PET     -0.108363
   2031 CA6        66.6300   26.5000   58.6200 ca        93 PET     -0.163574
   2032 C2         65.3500   25.6300   58.6300 c         93 PET      0.825469
   2033 C3         64.5600   23.3400   58.8800 c3        93 PET      0.058627
   2034 C4         64.8100   22.2000   59.8400 c3        93 PET      0.058627
   2035 O1         69.9700   30.1800   58.9300 os        93 PET     -0.411922
   2036 O2         71.2900   28.3700   59.0100 o         93 PET     -0.591068
   2037 O3         64.2300   26.0700   58.3400 o         93 PET     -0.591068
   2038 O4         65.5800   24.3200   59.0700 os        93 PET     -0.411922
   2039 HA2        69.9000   26.1800   59.4000 ha        93 PET      0.129090
   2040 HA3        67.9400   24.7800   59.0100 ha        93 PET      0.145907
   2041 HA4        67.7300   29.7700   58.4000 ha        93 PET      0.145907
   2042 HA5        65.6400   28.3800   58.2700 ha        93 PET      0.129090
   2043 H31        63.5500   23.6900   59.1200 h1        93 PET      0.097188
   2044 H32        64.5200   22.9900   57.8300 h1        93 PET      0.097188
   2045 H41        64.0100   21.4500   59.7700 h1        93 PET      0.097188
   2046 H42        64.7300   22.6400   60.8400 h1        93 PET      0.097188
   2047 C1         67.2100   22.0500   60.4300 c         94 PET      0.825469
   2048 CA1        68.4400   22.3200   59.6600 ca        94 PET     -0.163574
   2049 CA2        69.3700   23.2200   60.2500 ca        94 PET     -0.108363
   2050 CA3        70.6200   23.4400   59.7100 ca        94 PET     -0.078542
   2051 CA4        68.7200   21.9000   58.3000 ca        94 PET     -0.078542
   2052 CA5        69.9300   22.3000   57.6900 ca        94 PET     -0.108363
   2053 CA6        70.8800   23.0400   58.3400 ca        94 PET     -0.163574
   2054 C2         72.2300   23.2900   57.7900 c         94 PET      0.825469
   2055 C3         74.6100   23.4400   58.3100 c3        94 PET      0.058627
   2056 C4         75.4000   23.3300   59.5400 c3        94 PET      0.058627
   2057 O1         66.1600   21.6400   59.6400 os        94 PET     -0.411922
   2058 O2         67.0600   22.3300   61.5900 o         94 PET     -0.591068
   2059 O3         72.3500   23.6600   56.6300 o         94 PET     -0.591068
   2060 O4         73.2400   23.1400   58.6400 os        94 PET     -0.411922
   2061 HA2        69.2500   23.5400   61.2800 ha        94 PET      0.129090
   2062 HA3        71.3300   23.9700   60.3300 ha        94 PET      0.145907
   2063 HA4        68.0400   21.1700   57.8700 ha        94 PET      0.145907
   2064 HA5        70.1900   21.9500   56.7000 ha        94 PET      0.129090
   2065 H31        74.9900   22.7600   57.5400 h1        94 PET      0.097188
   2066 H32        74.7000   24.4500   57.9000 h1        94 PET      0.097188
   2067 H41        75.5000   22.2800   59.8400 h1        94 PET      0.097188
   2068 H42        74.9300   23.8200   60.4000 h1        94 PET      0.097188
   2069 C1         -2.3100   23.0200   58.7600 c         95 PET      0.825469
   2070 CA1        -1.1600   23.7400   58.0800 ca        95 PET     -0.163574
   2071 CA2        -1.4700   24.8800   57.2400 ca        95 PET     -0.108363
   2072 CA3        -0.5000   25.3800   56.4200 ca        95 PET     -0.078542
   2073 CA4         0.1700   23.3200   58.2700 ca        95 PET     -0.078542
   2074 CA5         1.2000   24.0200   57.5500 ca        95 PET     -0.108363
   2075 CA6         0.8700   25.1000   56.7000 ca        95 PET     -0.163574
   2076 C2          1.9400   26.0000   56.1700 c         95 PET      0.825469
   2077 C3          4.2700   26.6500   56.3200 c3        95 PET      0.058627
   2078 C4          4.3700   27.4100   57.7200 c3        95 PET      0.058627
   2079 O1         -3.2500   23.8500   59.3400 os        95 PET     -0.411922
   2080 O2         -2.3700   21.8000   58.7800 o         95 PET     -0.591068
   2081 O3          1.7000   27.1100   55.6500 o         95 PET     -0.591068
   2082 O4          3.2300   25.6300   56.4600 os        95 PET     -0.411922
   2083 HA2        -2.5200   25.1300   57.1500 ha        95 PET      0.129090
   2084 HA3        -0.7500   26.1900   55.7500 ha        95 PET      0.145907
   2085 HA4         0.4500   22.5800   59.0100 ha        95 PET      0.145907
   2086 HA5         2.2300   23.7900   57.8100 ha        95 PET      0.129090
   2087 H31         5.2600   26.2700   56.0200 h1        95 PET      0.097188
   2088 H32         4.0300   27.4400   55.6000 h1        95 PET      0.097188
   2089 H41         4.5800   28.4600   57.4900 h1        95 PET      0.097188
   2090 H42         5.2700   27.1400   58.2800 h1        95 PET      0.097188
   2091 C1         83.0700   26.1100   59.2600 c         96 PET      0.825469
   2092 CA1        81.6400   26.1000   59.8500 ca        96 PET     -0.163574
   2093 CA2        81.3800   25.2600   60.9000 ca        96 PET     -0.108363
   2094 CA3        80.0800   25.3200   61.5400 ca        96 PET     -0.078542
   2095 CA4        80.6100   26.9900   59.3300 ca        96 PET     -0.078542
   2096 CA5        79.3300   27.0600   59.9400 ca        96 PET     -0.108363
   2097 CA6        79.0700   26.2300   61.0900 ca        96 PET     -0.163574
   2098 C2         77.7000   26.1300   61.6600 c         96 PET      0.825469
   2099 C3         75.4300   26.7300   61.8200 c3        96 PET      0.058627
   2100 C4         74.3900   27.7700   61.4900 c3        96 PET      0.058627
   2101 O1         83.2300   27.2800   58.5300 os        96 PET     -0.411922
   2102 O2         83.8400   25.2100   59.4000 o         96 PET     -0.591068
   2103 O3         77.4300   25.4600   62.6200 o         96 PET     -0.591068
   2104 O4         76.7300   26.9400   61.1800 os        96 PET     -0.411922
   2105 HA2        82.1200   24.6300   61.3700 ha        96 PET      0.129090
   2106 HA3        79.9300   24.6700   62.3900 ha        96 PET      0.145907
   2107 HA4        80.7600   27.6200   58.4600 ha        96 PET      0.145907
   2108 HA5        78.5700   27.6500   59.4600 ha        96 PET      0.129090
   2109 H31        75.0900   25.7300   61.5400 h1        96 PET      0.097188
   2110 H32        75.5700   26.8800   62.9000 h1        96 PET      0.097188
   2111 H41        74.5700   28.7200   62.0100 h1        96 PET      0.097188
   2112 H42        73.3800   27.4500   61.7900 h1        96 PET      0.097188
   2113 C1         73.8800   26.8800   59.3200 c         97 PET      0.825469
   2114 CA1        74.3600   26.9500   57.9500 ca        97 PET     -0.163574
   2115 CA2        73.5100   26.6200   56.8400 ca        97 PET     -0.108363
   2116 CA3        74.0900   26.5200   55.5900 ca        97 PET     -0.078542
   2117 CA4        75.6800   27.2300   57.7700 ca        97 PET     -0.078542
   2118 CA5        76.2000   27.2300   56.5000 ca        97 PET     -0.108363
   2119 CA6        75.4200   26.9300   55.3700 ca        97 PET     -0.163574
   2120 C2         76.0800   27.0200   54.0200 c         97 PET      0.825469
   2121 C3         75.6400   27.6500   51.8000 c3        97 PET      0.058627
   2122 C4         76.2400   29.1400   51.8700 c3        97 PET      0.058627
   2123 O1         74.3400   27.9500   60.0800 os        97 PET     -0.411922
   2124 O2         73.2500   25.9600   59.7900 o         97 PET     -0.591068
   2125 O3         77.2800   26.8700   53.8200 o         97 PET     -0.591068
   2126 O4         75.1600   27.1800   53.0400 os        97 PET     -0.411922
   2127 HA2        72.4500   26.4500   57.0400 ha        97 PET      0.129090
   2128 HA3        73.4200   26.1700   54.8100 ha        97 PET      0.145907
   2129 HA4        76.3900   27.5100   58.5400 ha        97 PET      0.145907
   2130 HA5        77.2500   27.4700   56.3900 ha        97 PET      0.129090
   2131 H31        76.4500   26.9300   51.6000 h1        97 PET      0.097188
   2132 H32        74.8700   27.5800   51.0200 h1        97 PET      0.097188
   2133 H41        75.8400   29.6000   52.7800 h1        97 PET      0.097188
   2134 H42        75.7900   29.6200   50.9900 h1        97 PET      0.097188
   2135 C1         -1.6200   30.2800   52.0700 c         98 PET      0.825469
   2136 CA1        -0.1300   30.1400   52.0600 ca        98 PET     -0.163574
   2137 CA2         0.7300   31.2400   51.7300 ca        98 PET     -0.108363
   2138 CA3         2.1200   31.0700   52.0600 ca        98 PET     -0.078542
   2139 CA4         0.4200   28.9000   52.5000 ca        98 PET     -0.078542
   2140 CA5         1.7600   28.6800   52.5600 ca        98 PET     -0.108363
   2141 CA6         2.6300   29.8200   52.3400 ca        98 PET     -0.163574
   2142 C2          4.1500   29.7000   52.5000 c         98 PET      0.825469
   2143 C3          5.9700   28.8600   53.8600 c3        98 PET      0.058627
   2144 C4          6.0100   30.0700   54.8500 c3        98 PET      0.058627
   2145 O1         -2.3400   29.0600   51.8800 os        98 PET     -0.411922
   2146 O2         -2.1800   31.3500   52.2600 o         98 PET     -0.591068
   2147 O3          4.9000   30.4600   51.8800 o         98 PET     -0.591068
   2148 O4          4.6200   28.7600   53.4300 os        98 PET     -0.411922
   2149 HA2         0.2600   32.1600   51.4200 ha        98 PET      0.129090
   2150 HA3         2.8200   31.8500   51.8000 ha        98 PET      0.145907
   2151 HA4        -0.2400   28.0800   52.7800 ha        98 PET      0.145907
   2152 HA5         2.1800   27.7600   52.9800 ha        98 PET      0.129090
   2153 H31         6.2000   27.9200   54.3600 h1        98 PET      0.097188
   2154 H32         6.6700   28.9600   53.0200 h1        98 PET      0.097188
   2155 H41         6.2800   30.9700   54.3000 h1        98 PET      0.097188
   2156 H42         6.8900   29.9000   55.4900 h1        98 PET      0.097188
   2157 C1          4.2800   31.5000   55.8000 c         99 PET      0.825469
   2158 CA1         3.0100   31.5800   56.6600 ca        99 PET     -0.163574
   2159 CA2         2.5300   32.8200   57.0800 ca        99 PET     -0.108363
   2160 CA3         1.2800   32.9000   57.8300 ca        99 PET     -0.078542
   2161 CA4         2.2600   30.4300   56.9100 ca        99 PET     -0.078542
   2162 CA5         1.0600   30.5500   57.5900 ca        99 PET     -0.108363
   2163 CA6         0.5800   31.7400   58.1100 ca        99 PET     -0.163574
   2164 C2         -0.6500   31.8400   59.0000 c         99 PET      0.825469
   2165 C3         -2.8700   30.7600   59.4300 c3        99 PET      0.058627
   2166 C4         -2.5900   30.4900   60.9200 c3        99 PET      0.058627
   2167 O1          4.7900   30.1600   55.6400 os        99 PET     -0.411922
   2168 O2          4.7100   32.4900   55.2600 o         99 PET     -0.591068
   2169 O3         -0.7900   32.7300   59.8300 o         99 PET     -0.591068
   2170 O4         -1.5800   30.8700   58.6700 os        99 PET     -0.411922
   2171 HA2         3.0100   33.7500   56.8000 ha        99 PET      0.129090
   2172 HA3         1.0400   33.8600   58.2900 ha        99 PET      0.145907
   2173 HA4         2.4800   29.4500   56.5000 ha        99 PET      0.145907
   2174 HA5         0.4900   29.6400   57.7400 ha        99 PET      0.129090
   2175 H31        -3.5000   31.6600   59.3700 h1        99 PET      0.097188
   2176 H32        -3.5000   29.9400   59.0600 h1        99 PET      0.097188
   2177 H41        -3.3000   29.7100   61.2400 h1        99 PET      0.097188
   2178 H42        -2.7500   31.4000   61.5200 h1        99 PET      0.097188
   2179 C1         -0.8200   29.6500   62.2000 c        100 PET      0.825469
   2180 CA1         0.6300   29.4500   62.3700 ca       100 PET     -0.163574
   2181 CA2         1.1700   28.9300   63.5700 ca       100 PET     -0.108363
   2182 CA3         2.4500   28.4000   63.5700 ca       100 PET     -0.078542
   2183 CA4         1.5000   29.5300   61.2200 ca       100 PET     -0.078542
   2184 CA5         2.7800   29.0300   61.2100 ca       100 PET     -0.108363
   2185 CA6         3.2200   28.3500   62.3600 ca       100 PET     -0.163574
   2186 C2          4.4500   27.4400   62.2800 c        100 PET      0.825469
   2187 C3          6.4600   26.8200   60.8200 c3       100 PET      0.058627
   2188 C4          7.4600   26.7200   62.0000 c3       100 PET      0.058627
   2189 O1         -1.2300   30.1200   61.0000 os       100 PET     -0.411922
   2190 O2         -1.6300   29.2900   63.0800 o        100 PET     -0.591068
   2191 O3          4.6200   26.5800   63.1800 o        100 PET     -0.591068
   2192 O4          5.2800   27.6000   61.1600 os       100 PET     -0.411922
   2193 HA2         0.5700   28.6200   64.4200 ha       100 PET      0.129090
   2194 HA3         2.8500   28.0900   64.5400 ha       100 PET      0.145907
   2195 HA4         1.1400   29.9700   60.3000 ha       100 PET      0.145907
   2196 HA5         3.3800   28.9800   60.3000 ha       100 PET      0.129090
   2197 H31         6.1400   25.8000   60.5500 h1       100 PET      0.097188
   2198 H32         6.9900   27.2100   59.9400 h1       100 PET      0.097188
   2199 H41         8.0500   25.8100   61.8700 h1       100 PET      0.097188
   2200 H42         6.8900   26.6700   62.9400 h1       100 PET      0.097188
   2201 C1          8.0700   28.9700   62.8000 c        101 PET      0.825469
   2202 CA1         9.1100   30.1000   62.7000 ca       101 PET     -0.163574
   2203 CA2        10.2400   29.8700   61.9200 ca       101 PET     -0.108363
   2204 CA3        11.0900   30.9200   61.6400 ca       101 PET     -0.078542
   2205 CA4         8.7600   31.4200   63.1800 ca       101 PET     -0.078542
   2206 CA5         9.5500   32.5000   62.7700 ca       101 PET     -0.108363
   2207 CA6        10.8100   32.2200   62.1100 ca       101 PET     -0.163574
   2208 C2         11.7000   33.3400   61.5900 c        101 PET      0.825469
   2209 C3         14.0100   33.9300   61.2200 c3       101 PET      0.058627
   2210 C4         15.4300   33.4000   61.3200 c3       101 PET      0.058627
   2211 O1          8.3700   27.9000   62.0400 os       101 PET     -0.411922
   2212 O2          7.0400   29.0700   63.4400 o        101 PET     -0.591068
   2213 O3         11.3100   34.4500   61.2200 o        101 PET     -0.591068
   2214 O4         13.0400   33.0100   61.6500 os       101 PET     -0.411922
   2215 HA2        10.3800   28.8900   61.4600 ha       101 PET      0.129090
   2216 HA3        11.9700   30.8100   61.0200 ha       101 PET      0.145907
   2217 HA4         7.8300   31.5300   63.7400 ha       101 PET      0.145907
   2218 HA5         9.2400   33.4900   63.1200 ha       101 PET      0.129090
   2219 H31        13.8300   34.2800   60.1900 h1       101 PET      0.097188
   2220 H32        14.0000   34.8400   61.8200 h1       101 PET      0.097188
   2221 H41        15.4700   32.5000   60.6900 h1       101 PET      0.097188
   2222 H42        15.7600   33.0500   62.3100 h1       101 PET      0.097188
   2223 C1         17.6900   34.3800   60.9800 c        102 PET      0.825469
   2224 CA1        18.3400   35.6900   60.5800 ca       102 PET     -0.163574
   2225 CA2        17.7400   36.8800   60.3500 ca       102 PET     -0.108363
   2226 CA3        18.4900   38.0600   59.9600 ca       102 PET     -0.078542
   2227 CA4        19.7200   35.6300   60.4200 ca       102 PET     -0.078542
   2228 CA5        20.5100   36.7800   59.9600 ca       102 PET     -0.108363
   2229 CA6        19.8700   38.0000   59.7500 ca       102 PET     -0.163574
   2230 C2         20.7100   39.1300   59.2000 c        102 PET      0.825469
   2231 C3         20.6600   41.4900   58.3800 c3       102 PET      0.058627
   2232 C4         20.8200   42.5400   59.6000 c3       102 PET      0.058627
   2233 O1         16.3300   34.4200   60.8100 os       102 PET     -0.411922
   2234 O2         18.3300   33.3900   61.1800 o        102 PET     -0.591068
   2235 O3         21.9100   39.0900   59.0500 o        102 PET     -0.591068
   2236 O4         19.9900   40.2700   58.8100 os       102 PET     -0.411922
   2237 HA2        16.6700   37.0300   60.4700 ha       102 PET      0.129090
   2238 HA3        17.9800   39.0100   59.8600 ha       102 PET      0.145907
   2239 HA4        20.3100   34.7600   60.6600 ha       102 PET      0.145907
   2240 HA5        21.5800   36.7000   59.8400 ha       102 PET      0.129090
   2241 H31        21.6300   41.2200   57.9400 h1       102 PET      0.097188
   2242 H32        20.0500   41.8200   57.5300 h1       102 PET      0.097188
   2243 H41        20.4700   41.9900   60.4800 h1       102 PET      0.097188
   2244 H42        20.1400   43.4000   59.4800 h1       102 PET      0.097188
   2245 C1         22.5000   44.3100   59.7400 c        103 PET      0.825469
   2246 CA1        24.0500   44.4900   59.7100 ca       103 PET     -0.163574
   2247 CA2        24.8800   43.4200   59.1600 ca       103 PET     -0.108363
   2248 CA3        26.2500   43.6000   59.0600 ca       103 PET     -0.078542
   2249 CA4        24.5800   45.7200   60.0200 ca       103 PET     -0.078542
   2250 CA5        25.9900   45.8800   59.8900 ca       103 PET     -0.108363
   2251 CA6        26.8300   44.8600   59.4800 ca       103 PET     -0.163574
   2252 C2         28.3000   45.2000   59.3500 c        103 PET      0.825469
   2253 C3         30.4000   44.4800   58.2700 c3       103 PET      0.058627
   2254 C4         31.2900   43.2300   57.9800 c3       103 PET      0.058627
   2255 O1         22.1700   42.9400   59.6800 os       103 PET     -0.411922
   2256 O2         21.7900   45.2400   59.7900 o        103 PET     -0.591068
   2257 O3         28.8400   46.1900   59.9000 o        103 PET     -0.591068
   2258 O4         28.9900   44.2300   58.6700 os       103 PET     -0.411922
   2259 HA2        24.3500   42.5500   58.8000 ha       103 PET      0.129090
   2260 HA3        26.9500   42.8200   58.8000 ha       103 PET      0.145907
   2261 HA4        23.9500   46.5500   60.3500 ha       103 PET      0.145907
   2262 HA5        26.3300   46.8700   60.1800 ha       103 PET      0.129090
   2263 H31        30.2500   45.0600   57.3500 h1       103 PET      0.097188
   2264 H32        30.8500   45.1400   59.0200 h1       103 PET      0.097188
   2265 H41        30.8700   42.6300   57.1600 h1       103 PET      0.097188
   2266 H42        31.3300   42.5900   58.8700 h1       103 PET      0.097188
   2267 C1         33.6300   42.9700   57.1800 c        104 PET      0.825469
   2268 CA1        34.9300   43.6500   56.7800 ca       104 PET     -0.163574
   2269 CA2        35.0600   45.0800   56.8500 ca       104 PET     -0.108363
   2270 CA3        36.2700   45.7100   56.4000 ca       104 PET     -0.078542
   2271 CA4        35.8800   42.9500   56.0500 ca       104 PET     -0.078542
   2272 CA5        37.0000   43.5900   55.5900 ca       104 PET     -0.108363
   2273 CA6        37.3000   44.9400   55.8200 ca       104 PET     -0.163574
   2274 C2         38.6200   45.6600   55.4200 c        104 PET      0.825469
   2275 C3         40.7100   45.5100   54.2800 c3       104 PET      0.058627
   2276 C4         41.6600   44.5200   53.6200 c3       104 PET      0.058627
   2277 O1         32.6100   43.8100   57.6000 os       104 PET     -0.411922
   2278 O2         33.5000   41.7600   57.2300 o        104 PET     -0.591068
   2279 O3         38.7500   46.8700   55.5400 o        104 PET     -0.591068
   2280 O4         39.6100   44.8400   54.9300 os       104 PET     -0.411922
   2281 HA2        34.3200   45.7300   57.3100 ha       104 PET      0.129090
   2282 HA3        36.3900   46.7800   56.5500 ha       104 PET      0.145907
   2283 HA4        35.7200   41.9200   55.7500 ha       104 PET      0.145907
   2284 HA5        37.7600   42.9900   55.0900 ha       104 PET      0.129090
   2285 H31        40.2700   46.1700   53.5200 h1       104 PET      0.097188
   2286 H32        41.3200   46.1300   54.9500 h1       104 PET      0.097188
   2287 H41        41.3700   44.4600   52.5600 h1       104 PET      0.097188
   2288 H42        41.5000   43.5500   54.1100 h1       104 PET      0.097188
   2289 C1         44.0000   44.1200   53.4400 c        105 PET      0.825469
   2290 CA1        45.4400   44.6000   53.3300 ca       105 PET     -0.163574
   2291 CA2        45.6800   45.9900   53.4000 ca       105 PET     -0.108363
   2292 CA3        46.9200   46.5000   53.1800 ca       105 PET     -0.078542
   2293 CA4        46.4900   43.8000   52.8700 ca       105 PET     -0.078542
   2294 CA5        47.7800   44.3100   52.6400 ca       105 PET     -0.108363
   2295 CA6        48.0200   45.6400   52.9100 ca       105 PET     -0.163574
   2296 C2         49.3800   46.2800   52.5600 c        105 PET      0.825469
   2297 C3         50.7400   48.1900   52.4000 c3       105 PET      0.058627
   2298 C4         50.8700   49.5400   53.2000 c3       105 PET      0.058627
   2299 O1         43.0300   44.9500   53.7100 os       105 PET     -0.411922
   2300 O2         43.8600   42.9100   53.1900 o        105 PET     -0.591068
   2301 O3         50.1700   45.5900   52.0000 o        105 PET     -0.591068
   2302 O4         49.5200   47.6000   52.8400 os       105 PET     -0.411922
   2303 HA2        44.8300   46.6700   53.4700 ha       105 PET      0.129090
   2304 HA3        47.1100   47.5600   53.2000 ha       105 PET      0.145907
   2305 HA4        46.4600   42.7200   52.7600 ha       105 PET      0.145907
   2306 HA5        48.5100   43.5800   52.3200 ha       105 PET      0.129090
   2307 H31        51.5800   47.5400   52.6600 h1       105 PET      0.097188
   2308 H32        50.8100   48.3800   51.3200 h1       105 PET      0.097188
   2309 H41        50.9100   49.2500   54.2500 h1       105 PET      0.097188
   2310 H42        50.0200   50.1900   52.9600 h1       105 PET      0.097188
   2311 C1         52.3600   51.4200   52.8800 c        106 PET      0.825469
   2312 CA1        53.7700   51.9000   52.6000 ca       106 PET     -0.163574
   2313 CA2        54.7000   50.9700   52.1700 ca       106 PET     -0.108363
   2314 CA3        56.0600   51.3100   52.2200 ca       106 PET     -0.078542
   2315 CA4        54.2100   53.2100   52.9200 ca       106 PET     -0.078542
   2316 CA5        55.5900   53.5500   52.7300 ca       106 PET     -0.108363
   2317 CA6        56.5000   52.6700   52.2400 ca       106 PET     -0.163574
   2318 C2         57.9900   52.9600   51.9900 c        106 PET      0.825469
   2319 C3         59.7200   54.6900   51.9800 c3       106 PET      0.058627
   2320 C4         59.6500   56.2000   51.7800 c3       106 PET      0.058627
   2321 O1         52.0800   50.1100   52.7000 os       106 PET     -0.411922
   2322 O2         51.5500   52.2900   53.2700 o        106 PET     -0.591068
   2323 O3         58.8300   52.1100   51.6300 o        106 PET     -0.591068
   2324 O4         58.3300   54.3100   52.0400 os       106 PET     -0.411922
   2325 HA2        54.4900   49.9200   51.9700 ha       106 PET      0.129090
   2326 HA3        56.8200   50.5700   51.9900 ha       106 PET      0.145907
   2327 HA4        53.5700   53.8900   53.4600 ha       106 PET      0.145907
   2328 HA5        55.9000   54.5800   52.8500 ha       106 PET      0.129090
   2329 H31        60.1900   54.5000   52.9600 h1       106 PET      0.097188
   2330 H32        60.2200   54.1100   51.2000 h1       106 PET      0.097188
   2331 H41        59.0300   56.6200   52.5700 h1       106 PET      0.097188
   2332 H42        59.1100   56.4300   50.8500 h1       106 PET      0.097188
   2333 C1         61.0200   58.1500   52.2300 c        107 PET      0.825469
   2334 CA1        62.4000   58.6900   52.2300 ca       107 PET     -0.163574
   2335 CA2        63.4700   57.7900   52.0800 ca       107 PET     -0.108363
   2336 CA3        64.8000   58.2300   52.0600 ca       107 PET     -0.078542
   2337 CA4        62.6700   60.0400   52.1800 ca       107 PET     -0.078542
   2338 CA5        63.9500   60.5600   52.1200 ca       107 PET     -0.108363
   2339 CA6        65.0100   59.6100   52.1200 ca       107 PET     -0.163574
   2340 C2         66.3900   60.1400   52.4600 c        107 PET      0.825469
   2341 C3         67.9500   61.9200   52.3600 c3       107 PET      0.058627
   2342 C4         68.0800   63.4200   51.9400 c3       107 PET      0.058627
   2343 O1         60.9400   56.8300   51.8200 os       107 PET     -0.411922
   2344 O2         60.0700   58.7900   52.5400 o        107 PET     -0.591068
   2345 O3         67.1700   59.5200   53.1200 o        107 PET     -0.591068
   2346 O4         66.6300   61.4700   52.1300 os       107 PET     -0.411922
   2347 HA2        63.1900   56.7400   51.9900 ha       107 PET      0.129090
   2348 HA3        65.6600   57.5800   52.1700 ha       107 PET      0.145907
   2349 HA4        61.8900   60.7800   52.0500 ha       107 PET      0.145907
   2350 HA5        64.1400   61.6200   52.0700 ha       107 PET      0.129090
   2351 H31        68.1400   61.8800   53.4400 h1       107 PET      0.097188
   2352 H32        68.6900   61.2900   51.8700 h1       107 PET      0.097188
   2353 H41        67.4900   63.9500   52.7000 h1       107 PET      0.097188
   2354 H42        67.6700   63.5700   50.9400 h1       107 PET      0.097188
   2355 C1         69.9400   65.0200   52.0600 c        108 PET      0.825469
   2356 CA1        71.4200   65.0700   52.0600 ca       108 PET     -0.163574
   2357 CA2        72.1900   63.9300   52.3100 ca       108 PET     -0.108363
   2358 CA3        73.5900   64.0500   52.4400 ca       108 PET     -0.078542
   2359 CA4        72.0800   66.2700   51.9500 ca       108 PET     -0.078542
   2360 CA5        73.4300   66.4200   52.1000 ca       108 PET     -0.108363
   2361 CA6        74.2500   65.3000   52.3900 ca       108 PET     -0.163574
   2362 C2         75.7300   65.3900   52.5300 c        108 PET      0.825469
   2363 C3         77.3100   66.9500   53.4500 c3       108 PET      0.058627
   2364 C4         78.5600   66.3900   52.7200 c3       108 PET      0.058627
   2365 O1         69.5100   63.7600   51.9300 os       108 PET     -0.411922
   2366 O2         69.2500   66.0300   52.0900 o        108 PET     -0.591068
   2367 O3         76.4900   64.4100   52.5700 o        108 PET     -0.591068
   2368 O4         76.0700   66.6600   52.8000 os       108 PET     -0.411922
   2369 HA2        71.7600   62.9400   52.4600 ha       108 PET      0.129090
   2370 HA3        74.1000   63.1500   52.7700 ha       108 PET      0.145907
   2371 HA4        71.5100   67.1700   51.7200 ha       108 PET      0.145907
   2372 HA5        73.7800   67.4400   51.9600 ha       108 PET      0.129090
   2373 H31        77.3800   68.0400   53.5600 h1       108 PET      0.097188
   2374 H32        77.1800   66.5800   54.4700 h1       108 PET      0.097188
   2375 H41        78.3600   66.4900   51.6500 h1       108 PET      0.097188
   2376 H42        78.6600   65.3100   52.8600 h1       108 PET      0.097188
   2377 C1          0.8400   67.0500   52.6200 c        109 PET      0.825469
   2378 CA1         1.8600   67.9700   53.3000 ca       109 PET     -0.163574
   2379 CA2         1.5300   68.6900   54.4800 ca       109 PET     -0.108363
   2380 CA3         2.4700   69.4400   55.1400 ca       109 PET     -0.078542
   2381 CA4         3.1200   68.2100   52.7700 ca       109 PET     -0.078542
   2382 CA5         4.0200   69.0500   53.4400 ca       109 PET     -0.108363
   2383 CA6         3.6900   69.6400   54.6600 ca       109 PET     -0.163574
   2384 C2          4.6400   70.6300   55.3200 c        109 PET      0.825469
   2385 C3          6.9400   71.5900   55.2000 c3       109 PET      0.058627
   2386 C4          8.0500   70.8300   55.9600 c3       109 PET      0.058627
   2387 O1         -0.3300   67.1200   53.2400 os       109 PET     -0.411922
   2388 O2          1.0200   66.4300   51.5800 o        109 PET     -0.591068
   2389 O3          4.3200   71.2700   56.2700 o        109 PET     -0.591068
   2390 O4          5.9500   70.6600   54.7800 os       109 PET     -0.411922
   2391 HA2         0.5500   68.5800   54.9500 ha       109 PET      0.129090
   2392 HA3         2.1700   69.8800   56.0800 ha       109 PET      0.145907
   2393 HA4         3.5000   67.6200   51.9300 ha       109 PET      0.145907
   2394 HA5         4.9600   69.1800   52.9200 ha       109 PET      0.129090
   2395 H31         7.3500   72.1300   54.3400 h1       109 PET      0.097188
   2396 H32         6.5000   72.4200   55.7500 h1       109 PET      0.097188
   2397 H41         8.7000   70.2500   55.2900 h1       109 PET      0.097188
   2398 H42         7.6400   70.2200   56.7800 h1       109 PET      0.097188
   2399 C1          9.9800   71.3800   57.4100 c        110 PET      0.825469
   2400 CA1        10.7500   72.4400   58.1500 ca       110 PET     -0.163574
   2401 CA2        10.4800   73.8100   57.9900 ca       110 PET     -0.108363
   2402 CA3        11.2800   74.7500   58.6000 ca       110 PET     -0.078542
   2403 CA4        11.8800   72.0700   58.8500 ca       110 PET     -0.078542
   2404 CA5        12.7500   72.9700   59.4100 ca       110 PET     -0.108363
   2405 CA6        12.4900   74.3400   59.1500 ca       110 PET     -0.163574
   2406 C2         13.4700   75.3800   59.5300 c        110 PET      0.825469
   2407 C3         15.2900   75.9300   60.9900 c3       110 PET      0.058627
   2408 C4         14.9400   77.1300   61.9400 c3       110 PET      0.058627
   2409 O1          8.8600   71.7600   56.7100 os       110 PET     -0.411922
   2410 O2         10.3200   70.1900   57.4000 o        110 PET     -0.591068
   2411 O3         13.7500   76.3200   58.7900 o        110 PET     -0.591068
   2412 O4         14.1300   75.0800   60.6800 os       110 PET     -0.411922
   2413 HA2         9.5800   74.1100   57.4700 ha       110 PET      0.129090
   2414 HA3        11.1200   75.8100   58.4400 ha       110 PET      0.145907
   2415 HA4        12.1600   71.0200   58.9000 ha       110 PET      0.145907
   2416 HA5        13.7200   72.5900   59.7200 ha       110 PET      0.129090
   2417 H31        16.1200   75.3000   61.3300 h1       110 PET      0.097188
   2418 H32        15.6900   76.3600   60.0600 h1       110 PET      0.097188
   2419 H41        15.8600   77.6100   62.3000 h1       110 PET      0.097188
   2420 H42        14.3900   76.7600   62.8100 h1       110 PET      0.097188
   2421 C1         14.5600   79.0000   60.3500 c        111 PET      0.825469
   2422 CA1        13.7300   79.5100   59.2000 ca       111 PET     -0.163574
   2423 CA2        12.3300   79.1100   59.1100 ca       111 PET     -0.108363
   2424 CA3        11.5400   79.6800   58.1100 ca       111 PET     -0.078542
   2425 CA4        14.2400   80.3700   58.1900 ca       111 PET     -0.078542
   2426 CA5        13.3600   80.8600   57.1900 ca       111 PET     -0.108363
   2427 CA6        12.0100   80.5300   57.1400 ca       111 PET     -0.163574
   2428 C2         11.1200   81.1800   56.0100 c        111 PET      0.825469
   2429 C3         11.7000   81.2300   53.6300 c3       111 PET      0.058627
   2430 C4         12.3000   82.1700   52.6100 c3       111 PET      0.058627
   2431 O1         14.0100   78.0300   61.1700 os       111 PET     -0.411922
   2432 O2         15.6100   79.5100   60.5800 o        111 PET     -0.591068
   2433 O3          9.9500   81.0600   55.9500 o        111 PET     -0.591068
   2434 O4         11.8600   81.8200   54.9700 os       111 PET     -0.411922
   2435 HA2        11.9200   78.4500   59.8600 ha       111 PET      0.129090
   2436 HA3        10.5300   79.2900   58.0300 ha       111 PET      0.145907
   2437 HA4        15.2500   80.7700   58.1900 ha       111 PET      0.145907
   2438 HA5        13.8400   81.4900   56.4500 ha       111 PET      0.129090
   2439 H31        12.3300   80.3400   53.5300 h1       111 PET      0.097188
   2440 H32        10.6800   80.9100   53.3800 h1       111 PET      0.097188
   2441 H41        11.6200   83.0200   52.5100 h1       111 PET      0.097188
   2442 H42        12.4800   81.7500   51.6100 h1       111 PET      0.097188
   2443 C1         14.0800    3.7300   52.7200 c        112 PET      0.825469
   2444 CA1        15.5200    4.0200   53.0300 ca       112 PET     -0.163574
   2445 CA2        16.1100    3.5600   54.2500 ca       112 PET     -0.108363
   2446 CA3        17.4500    3.7100   54.5000 ca       112 PET     -0.078542
   2447 CA4        16.3300    4.6400   52.0800 ca       112 PET     -0.078542
   2448 CA5        17.7300    4.8400   52.3800 ca       112 PET     -0.108363
   2449 CA6        18.3200    4.2600   53.5400 ca       112 PET     -0.163574
   2450 C2         19.7700    4.2900   53.7200 c        112 PET      0.825469
   2451 C3         21.6600    3.2300   54.9100 c3       112 PET      0.058627
   2452 C4         22.0400    4.4300   55.7700 c3       112 PET      0.058627
   2453 O1         13.5200    2.6500   53.2600 os       112 PET     -0.411922
   2454 O2         13.5200    4.3900   51.8800 o        112 PET     -0.591068
   2455 O3         20.5300    5.0000   53.0700 o        112 PET     -0.591068
   2456 O4         20.2100    3.3000   54.5400 os       112 PET     -0.411922
   2457 HA2        15.4200    3.0100   54.8900 ha       112 PET      0.129090
   2458 HA3        17.8900    3.3800   55.4300 ha       112 PET      0.145907
   2459 HA4        15.8800    5.0200   51.1600 ha       112 PET      0.145907
   2460 HA5        18.3600    5.2800   51.6100 ha       112 PET      0.129090
   2461 H31        21.8300    2.3000   55.4700 h1       112 PET      0.097188
   2462 H32        22.1300    3.2100   53.9200 h1       112 PET      0.097188
   2463 H41        21.3500    4.5900   56.6000 h1       112 PET      0.097188
   2464 H42        21.9600    5.4000   55.2600 h1       112 PET      0.097188
   2465 C1         24.3900    4.5100   55.2700 c        113 PET      0.825469
   2466 CA1        25.7700    4.7300   55.9400 ca       113 PET     -0.163574
   2467 CA2        26.9600    4.9000   55.1800 ca       113 PET     -0.108363
   2468 CA3        28.2200    5.0500   55.8200 ca       113 PET     -0.078542
   2469 CA4        25.9500    4.4600   57.3200 ca       113 PET     -0.078542
   2470 CA5        27.2500    4.4700   57.9200 ca       113 PET     -0.108363
   2471 CA6        28.3500    4.9100   57.2000 ca       113 PET     -0.163574
   2472 C2         29.7300    4.9900   57.8100 c        113 PET      0.825469
   2473 C3         30.9300    4.8200   59.9700 c3       113 PET      0.058627
   2474 C4         31.3800    3.3300   59.9500 c3       113 PET      0.058627
   2475 O1         23.4300    4.3100   56.1800 os       113 PET     -0.411922
   2476 O2         24.1700    4.6700   54.0600 o        113 PET     -0.591068
   2477 O3         30.7400    5.1200   57.1400 o        113 PET     -0.591068
   2478 O4         29.7400    4.9500   59.2000 os       113 PET     -0.411922
   2479 HA2        26.9400    5.0500   54.1000 ha       113 PET      0.129090
   2480 HA3        29.0100    5.2300   55.0900 ha       113 PET      0.145907
   2481 HA4        25.1200    4.1700   57.9600 ha       113 PET      0.145907
   2482 HA5        27.3200    4.1700   58.9600 ha       113 PET      0.129090
   2483 H31        31.7700    5.4400   59.6400 h1       113 PET      0.097188
   2484 H32        30.6900    5.1400   60.9900 h1       113 PET      0.097188
   2485 H41        30.4900    2.7200   59.7200 h1       113 PET      0.097188
   2486 H42        31.8000    3.0100   60.9100 h1       113 PET      0.097188
   2487 C1         33.7300    3.5900   59.2600 c        114 PET      0.825469
   2488 CA1        34.6900    3.4200   58.1400 ca       114 PET     -0.163574
   2489 CA2        34.3800    3.7200   56.8000 ca       114 PET     -0.108363
   2490 CA3        35.4500    3.7200   55.8700 ca       114 PET     -0.078542
   2491 CA4        35.9700    2.8400   58.3900 ca       114 PET     -0.078542
   2492 CA5        36.9600    2.7600   57.4300 ca       114 PET     -0.108363
   2493 CA6        36.7400    3.1900   56.1200 ca       114 PET     -0.163574
   2494 C2         37.7500    3.1900   54.9800 c        114 PET      0.825469
   2495 C3         40.1500    3.0300   54.4400 c3       114 PET      0.058627
   2496 C4         40.0600    1.9200   53.3800 c3       114 PET      0.058627
   2497 O1         32.4800    3.2200   58.9500 os       114 PET     -0.411922
   2498 O2         34.1000    3.8700   60.3600 o        114 PET     -0.591068
   2499 O3         37.4600    3.3200   53.8400 o        114 PET     -0.591068
   2500 O4         39.0000    3.0400   55.3900 os       114 PET     -0.411922
   2501 HA2        33.3800    4.0600   56.5400 ha       114 PET      0.129090
   2502 HA3        35.2500    4.1600   54.9000 ha       114 PET      0.145907
   2503 HA4        36.1800    2.4200   59.3700 ha       114 PET      0.145907
   2504 HA5        37.8600    2.1900   57.6400 ha       114 PET      0.129090
   2505 H31        40.3800    4.0400   54.0600 h1       114 PET      0.097188
   2506 H32        41.0600    2.7900   55.0000 h1       114 PET      0.097188
   2507 H41        39.6200    2.3800   52.4900 h1       114 PET      0.097188
   2508 H42        39.4300    1.1200   53.7800 h1       114 PET      0.097188
   2509 C1         42.4300   82.0900   52.7200 c        115 PET      0.825469
   2510 CA1        43.7500   81.3000   52.5200 ca       115 PET     -0.163574
   2511 CA2        43.7100   80.0100   52.0800 ca       115 PET     -0.108363
   2512 CA3        44.9600   79.3500   51.9000 ca       115 PET     -0.078542
   2513 CA4        44.9700   82.0400   52.6100 ca       115 PET     -0.078542
   2514 CA5        46.2400   81.4200   52.3600 ca       115 PET     -0.108363
   2515 CA6        46.1700   80.0500   52.1000 ca       115 PET     -0.163574
   2516 C2         47.3900   79.3000   51.9600 c        115 PET      0.825469
   2517 C3         49.8000   79.3800   52.0600 c3       115 PET      0.058627
   2518 C4         50.8400   80.5200   52.1300 c3       115 PET      0.058627
   2519 O1         41.3800   81.3300   53.1500 os       115 PET     -0.411922
   2520 O2         42.3200   83.2500   52.5300 o        115 PET     -0.591068
   2521 O3         47.4600   78.1500   51.6900 o        115 PET     -0.591068
   2522 O4         48.5600   79.9900   52.1800 os       115 PET     -0.411922
   2523 HA2        42.7600   79.4900   51.9700 ha       115 PET      0.129090
   2524 HA3        44.9700   78.2900   51.6700 ha       115 PET      0.145907
   2525 HA4        45.1300   83.1000   52.7700 ha       115 PET      0.145907
   2526 HA5        47.1700   81.9900   52.3200 ha       115 PET      0.129090
   2527 H31        49.9000   78.7700   52.9700 h1       115 PET      0.097188
   2528 H32        49.9400   78.7800   51.1600 h1       115 PET      0.097188
   2529 H41        50.7700   81.0700   53.0800 h1       115 PET      0.097188
   2530 H42        50.5300   81.1800   51.3100 h1       115 PET      0.097188
   2531 C1         53.1700   81.0400   51.8900 c        116 PET      0.825469
   2532 CA1        54.5700   80.5700   51.8600 ca       116 PET     -0.163574
   2533 CA2        55.6100   81.5100   51.8400 ca       116 PET     -0.108363
   2534 CA3        56.9000   81.0600   51.9900 ca       116 PET     -0.078542
   2535 CA4        54.9000   79.2300   51.9000 ca       116 PET     -0.078542
   2536 CA5        56.2600   78.8200   51.9600 ca       116 PET     -0.108363
   2537 CA6        57.2600   79.7700   52.0900 ca       116 PET     -0.163574
   2538 C2         58.6700   79.3200   52.3000 c        116 PET      0.825469
   2539 C3         61.0300   79.9500   52.5100 c3       116 PET      0.058627
   2540 C4         61.2100   79.5300   53.9300 c3       116 PET      0.058627
   2541 O1         52.2000   80.0700   51.8900 os       116 PET     -0.411922
   2542 O2         52.9200   82.2200   52.0100 o        116 PET     -0.591068
   2543 O3         58.9800   78.1100   52.3300 o        116 PET     -0.591068
   2544 O4         59.6200   80.3500   52.3100 os       116 PET     -0.411922
   2545 HA2        55.3200   82.5500   51.9300 ha       116 PET      0.129090
   2546 HA3        57.6800   81.8100   52.0900 ha       116 PET      0.145907
   2547 HA4        54.1200   78.4900   52.0000 ha       116 PET      0.145907
   2548 HA5        56.5100   77.7700   51.9100 ha       116 PET      0.129090
   2549 H31        61.3400   79.2500   51.7200 h1       116 PET      0.097188
   2550 H32        61.6700   80.8100   52.3100 h1       116 PET      0.097188
   2551 H41        60.7100   78.5600   53.9500 h1       116 PET      0.097188
   2552 H42        60.6500   80.2600   54.5300 h1       116 PET      0.097188
   2553 C1         63.0100   78.8300   55.3800 c        117 PET      0.825469
   2554 CA1        64.4800   78.8900   55.5800 ca       117 PET     -0.163574
   2555 CA2        65.2500   79.9900   55.0800 ca       117 PET     -0.108363
   2556 CA3        66.5800   79.9500   55.2500 ca       117 PET     -0.078542
   2557 CA4        65.1400   77.9100   56.3800 ca       117 PET     -0.078542
   2558 CA5        66.5100   77.9900   56.7000 ca       117 PET     -0.108363
   2559 CA6        67.2400   79.0400   56.1300 ca       117 PET     -0.163574
   2560 C2         68.7500   78.9800   56.1300 c        117 PET      0.825469
   2561 C3         70.7500   78.3200   57.3600 c3       117 PET      0.058627
   2562 C4         71.1100   77.4300   58.5600 c3       117 PET      0.058627
   2563 O1         62.5900   79.5200   54.3100 os       117 PET     -0.411922
   2564 O2         62.3000   78.1300   56.1200 o        117 PET     -0.591068
   2565 O3         69.4100   79.5100   55.2600 o        117 PET     -0.591068
   2566 O4         69.3100   78.2900   57.2000 os       117 PET     -0.411922
   2567 HA2        64.7200   80.7000   54.4600 ha       117 PET      0.129090
   2568 HA3        67.2000   80.6400   54.6900 ha       117 PET      0.145907
   2569 HA4        64.4900   77.1400   56.7800 ha       117 PET      0.145907
   2570 HA5        66.9800   77.2400   57.3200 ha       117 PET      0.129090
   2571 H31        71.1900   78.0000   56.4000 h1       117 PET      0.097188
   2572 H32        71.0600   79.3400   57.6200 h1       117 PET      0.097188
   2573 H41        70.7000   77.9700   59.4200 h1       117 PET      0.097188
   2574 H42        72.2000   77.2900   58.5500 h1       117 PET      0.097188
   2575 C1         71.1700   75.0700   59.1000 c        118 PET      0.825469
   2576 CA1        70.7600   73.7200   58.7100 ca       118 PET     -0.163574
   2577 CA2        71.6600   72.7300   58.4400 ca       118 PET     -0.108363
   2578 CA3        71.2900   71.4400   57.9500 ca       118 PET     -0.078542
   2579 CA4        69.3200   73.4200   58.5700 ca       118 PET     -0.078542
   2580 CA5        68.9800   72.1400   58.1200 ca       118 PET     -0.108363
   2581 CA6        69.9000   71.1100   57.8800 ca       118 PET     -0.163574
   2582 C2         69.4400   69.7300   57.3800 c        118 PET      0.825469
   2583 C3         70.1100   67.9100   55.7600 c3       118 PET      0.058627
   2584 C4         71.0000   67.9300   54.4500 c3       118 PET      0.058627
   2585 O1         70.5400   76.1100   58.4200 os       118 PET     -0.411922
   2586 O2         72.1300   75.1900   59.8400 o        118 PET     -0.591068
   2587 O3         68.3800   69.2100   57.7600 o        118 PET     -0.591068
   2588 O4         70.3300   69.1500   56.5600 os       118 PET     -0.411922
   2589 HA2        72.7400   72.8700   58.4900 ha       118 PET      0.129090
   2590 HA3        72.0400   70.7500   57.5900 ha       118 PET      0.145907
   2591 HA4        68.5900   74.2200   58.6500 ha       118 PET      0.145907
   2592 HA5        67.9300   71.9500   57.9200 ha       118 PET      0.129090
   2593 H31        70.3600   67.0100   56.3300 h1       118 PET      0.097188
   2594 H32        69.0400   67.8600   55.5200 h1       118 PET      0.097188
   2595 H41        70.4900   68.5500   53.7100 h1       118 PET      0.097188
   2596 H42        71.0000   66.8800   54.1100 h1       118 PET      0.097188
   2597 C1         72.5700   69.7500   54.9500 c        119 PET      0.825469
   2598 CA1        73.9900   69.9900   55.4000 ca       119 PET     -0.163574
   2599 CA2        74.9400   69.0000   55.4900 ca       119 PET     -0.108363
   2600 CA3        76.2800   69.2600   55.8500 ca       119 PET     -0.078542
   2601 CA4        74.4300   71.2900   55.6800 ca       119 PET     -0.078542
   2602 CA5        75.8200   71.6100   55.9800 ca       119 PET     -0.108363
   2603 CA6        76.7900   70.5100   56.1000 ca       119 PET     -0.163574
   2604 C2         78.2000   70.7500   56.5200 c        119 PET      0.825469
   2605 C3         79.4500   72.4100   58.0000 c3       119 PET      0.058627
   2606 C4         80.8400   72.3100   57.3300 c3       119 PET      0.058627
   2607 O1         72.3400   68.3600   54.8400 os       119 PET     -0.411922
   2608 O2         71.7800   70.6800   54.5500 o        119 PET     -0.591068
   2609 O3         79.0700   69.9100   56.4500 o        119 PET     -0.591068
   2610 O4         78.3200   71.9500   57.1700 os       119 PET     -0.411922
   2611 HA2        74.7100   67.9700   55.2400 ha       119 PET      0.129090
   2612 HA3        76.9500   68.4100   55.9100 ha       119 PET      0.145907
   2613 HA4        73.6600   72.0600   55.6600 ha       119 PET      0.145907
   2614 HA5        76.1000   72.6500   56.1300 ha       119 PET      0.129090
   2615 H31        79.2600   73.4600   58.2500 h1       119 PET      0.097188
   2616 H32        79.4200   71.7900   58.9100 h1       119 PET      0.097188
   2617 H41        80.7700   72.3300   56.2300 h1       119 PET      0.097188
   2618 H42        81.3200   71.3500   57.5500 h1       119 PET      0.097188
   2619 C1          1.7200   74.5600   57.3200 c        120 PET      0.825469
   2620 CA1         2.9800   75.3900   57.6100 ca       120 PET     -0.163574
   2621 CA2         2.8200   76.7700   57.9100 ca       120 PET     -0.108363
   2622 CA3         4.0000   77.5200   57.9400 ca       120 PET     -0.078542
   2623 CA4         4.2200   74.7200   57.5000 ca       120 PET     -0.078542
   2624 CA5         5.3000   75.5200   57.7200 ca       120 PET     -0.108363
   2625 CA6         5.2800   76.9800   57.8700 ca       120 PET     -0.163574
   2626 C2          6.5200   77.8000   57.9700 c        120 PET      0.825469
   2627 C3          7.3000   80.1000   57.7800 c3       120 PET      0.058627
   2628 C4          6.6300   81.5100   57.6200 c3       120 PET      0.058627
   2629 O1          1.7800   73.2900   57.7900 os       120 PET     -0.411922
   2630 O2          0.7400   75.0000   56.7200 o        120 PET     -0.591068
   2631 O3          7.6700   77.3800   58.0300 o        120 PET     -0.591068
   2632 O4          6.2300   79.0900   57.7900 os       120 PET     -0.411922
   2633 HA2         1.8500   77.2300   58.0600 ha       120 PET      0.129090
   2634 HA3         4.0100   78.6100   58.0100 ha       120 PET      0.145907
   2635 HA4         4.2600   73.6500   57.3700 ha       120 PET      0.145907
   2636 HA5         6.2300   74.9600   57.7500 ha       120 PET      0.129090
   2637 H31         7.8600   79.9500   58.7000 h1       120 PET      0.097188
   2638 H32         7.9600   79.8800   56.9300 h1       120 PET      0.097188
   2639 H41         5.7000   81.6300   57.0500 h1       120 PET      0.097188
   2640 H42         7.3600   82.2300   57.2400 h1       120 PET      0.097188
   2641 C1         24.2300   15.6700   58.2400 c        121 PET      0.825469
   2642 CA1        22.7700   15.3800   58.4500 ca       121 PET     -0.163574
   2643 CA2        22.2900   14.0400   58.3200 ca       121 PET     -0.108363
   2644 CA3        20.9500   13.8500   58.4800 ca       121 PET     -0.078542
   2645 CA4        21.9000   16.4300   58.7200 ca       121 PET     -0.078542
   2646 CA5        20.5300   16.1600   59.0500 ca       121 PET     -0.108363
   2647 CA6        19.9600   14.8700   58.7800 ca       121 PET     -0.163574
   2648 C2         18.5300   14.4800   58.7200 c        121 PET      0.825469
   2649 C3         16.2800   15.4800   58.9100 c3       121 PET      0.058627
   2650 C4         15.9400   15.7500   57.4400 c3       121 PET      0.058627
   2651 O1         25.0200   14.5500   57.9600 os       121 PET     -0.411922
   2652 O2         24.6400   16.8000   58.2100 o        121 PET     -0.591068
   2653 O3         18.0900   13.4200   58.2800 o        121 PET     -0.591068
   2654 O4         17.7400   15.5400   59.0500 os       121 PET     -0.411922
   2655 HA2        22.9500   13.2100   58.1100 ha       121 PET      0.129090
   2656 HA3        20.6300   12.8100   58.5300 ha       121 PET      0.145907
   2657 HA4        22.2600   17.4500   58.6700 ha       121 PET      0.145907
   2658 HA5        19.8800   16.9500   59.4300 ha       121 PET      0.129090
   2659 H31        15.8600   14.5400   59.2900 h1       121 PET      0.097188
   2660 H32        15.8800   16.2600   59.5700 h1       121 PET      0.097188
   2661 H41        14.9000   16.1000   57.3900 h1       121 PET      0.097188
   2662 H42        16.0000   14.8900   56.7700 h1       121 PET      0.097188
   2663 C1         16.7300   18.0400   57.2600 c        122 PET      0.825469
   2664 CA1        18.0000   18.8200   57.0300 ca       122 PET     -0.163574
   2665 CA2        19.2700   18.1800   56.8100 ca       122 PET     -0.108363
   2666 CA3        20.3600   19.0000   56.3400 ca       122 PET     -0.078542
   2667 CA4        17.9200   20.2500   57.0600 ca       122 PET     -0.078542
   2668 CA5        19.0900   21.0100   56.8300 ca       122 PET     -0.108363
   2669 CA6        20.3100   20.3700   56.3400 ca       122 PET     -0.163574
   2670 C2         21.5700   21.1900   56.1200 c        122 PET      0.825469
   2671 C3         22.4100   23.4300   56.5800 c3       122 PET      0.058627
   2672 C4         23.4000   23.5500   55.3600 c3       122 PET      0.058627
   2673 O1         16.8800   16.7500   56.8600 os       122 PET     -0.411922
   2674 O2         15.7100   18.5000   57.6700 o        122 PET     -0.591068
   2675 O3         22.6900   20.6900   55.9500 o        122 PET     -0.591068
   2676 O4         21.3200   22.5500   56.3300 os       122 PET     -0.411922
   2677 HA2        19.4200   17.1000   56.8400 ha       122 PET      0.129090
   2678 HA3        21.3100   18.5500   56.0700 ha       122 PET      0.145907
   2679 HA4        17.0000   20.7900   57.2700 ha       122 PET      0.145907
   2680 HA5        19.0500   22.0900   56.9700 ha       122 PET      0.129090
   2681 H31        21.9400   24.3600   56.9300 h1       122 PET      0.097188
   2682 H32        22.9300   22.9900   57.4500 h1       122 PET      0.097188
   2683 H41        22.8000   23.8800   54.5100 h1       122 PET      0.097188
   2684 H42        23.7800   22.5700   55.0400 h1       122 PET      0.097188
   2685 C1         23.9200   25.8300   55.6200 c        123 PET      0.825469
   2686 CA1        25.0200   26.8300   55.6300 ca       123 PET     -0.163574
   2687 CA2        24.6700   28.1700   55.7700 ca       123 PET     -0.108363
   2688 CA3        25.6600   29.1700   55.9400 ca       123 PET     -0.078542
   2689 CA4        26.3900   26.5000   55.6300 ca       123 PET     -0.078542
   2690 CA5        27.4300   27.4800   55.8100 ca       123 PET     -0.108363
   2691 CA6        27.0600   28.8200   56.0100 ca       123 PET     -0.163574
   2692 C2         28.1600   29.7700   56.5600 c        123 PET      0.825469
   2693 C3         30.4900   30.4200   56.2000 c3       123 PET      0.058627
   2694 C4         30.9600   30.2400   57.6400 c3       123 PET      0.058627
   2695 O1         24.3800   24.5200   55.6700 os       123 PET     -0.411922
   2696 O2         22.7400   26.1300   55.5700 o        123 PET     -0.591068
   2697 O3         27.9100   30.6200   57.3700 o        123 PET     -0.591068
   2698 O4         29.3100   29.6200   55.9000 os       123 PET     -0.411922
   2699 HA2        23.6500   28.5300   55.6900 ha       123 PET      0.129090
   2700 HA3        25.3600   30.2000   56.1300 ha       123 PET      0.145907
   2701 HA4        26.7100   25.4700   55.5500 ha       123 PET      0.145907
   2702 HA5        28.4500   27.1200   55.7400 ha       123 PET      0.129090
   2703 H31        31.2400   30.1600   55.4400 h1       123 PET      0.097188
   2704 H32        30.2500   31.4800   56.0200 h1       123 PET      0.097188
   2705 H41        30.8600   29.1600   57.7900 h1       123 PET      0.097188
   2706 H42        30.3700   30.8400   58.3400 h1       123 PET      0.097188
   2707 C1         33.1400   30.1600   58.8100 c        124 PET      0.825469
   2708 CA1        34.5900   30.5000   58.5900 ca       124 PET     -0.163574
   2709 CA2        35.0100   31.0500   57.3700 ca       124 PET     -0.108363
   2710 CA3        36.3900   31.2400   57.2100 ca       124 PET     -0.078542
   2711 CA4        35.5600   30.1000   59.5200 ca       124 PET     -0.078542
   2712 CA5        36.9600   30.3600   59.3900 ca       124 PET     -0.108363
   2713 CA6        37.3800   30.9000   58.1800 ca       124 PET     -0.163574
   2714 C2         38.8200   31.0800   57.9200 c        124 PET      0.825469
   2715 C3         41.0300   31.1500   58.7600 c3       124 PET      0.058627
   2716 C4         41.8400   31.1000   60.0900 c3       124 PET      0.058627
   2717 O1         32.3600   30.6100   57.8000 os       124 PET     -0.411922
   2718 O2         32.7400   29.3800   59.6200 o        124 PET     -0.591068
   2719 O3         39.2600   31.3400   56.7600 o        124 PET     -0.591068
   2720 O4         39.6500   30.9300   59.0200 os       124 PET     -0.411922
   2721 HA2        34.3400   31.1400   56.5200 ha       124 PET      0.129090
   2722 HA3        36.8400   31.6900   56.3200 ha       124 PET      0.145907
   2723 HA4        35.1200   29.5600   60.3500 ha       124 PET      0.145907
   2724 HA5        37.7300   30.0000   60.0600 ha       124 PET      0.129090
   2725 H31        41.5300   30.5700   57.9800 h1       124 PET      0.097188
   2726 H32        41.1300   32.1900   58.4300 h1       124 PET      0.097188
   2727 H41        41.1500   30.5000   60.6900 h1       124 PET      0.097188
   2728 H42        41.9500   32.0800   60.5600 h1       124 PET      0.097188
   2729 C1         44.0400   30.9500   59.2200 c        125 PET      0.825469
   2730 CA1        45.4800   30.5800   59.3300 ca       125 PET     -0.163574
   2731 CA2        45.8000   29.5000   60.1300 ca       125 PET     -0.108363
   2732 CA3        47.1500   29.1300   60.2400 ca       125 PET     -0.078542
   2733 CA4        46.4700   31.2100   58.5600 ca       125 PET     -0.078542
   2734 CA5        47.8100   30.9100   58.8200 ca       125 PET     -0.108363
   2735 CA6        48.1600   29.9000   59.7100 ca       125 PET     -0.163574
   2736 C2         49.5600   29.7800   60.2600 c        125 PET      0.825469
   2737 C3         51.7400   30.9900   60.4500 c3       125 PET      0.058627
   2738 C4         52.6700   30.1100   59.5900 c3       125 PET      0.058627
   2739 O1         43.1400   30.4300   60.1100 os       125 PET     -0.411922
   2740 O2         43.7800   31.8500   58.4200 o        125 PET     -0.591068
   2741 O3         49.9000   28.8700   61.0500 o        125 PET     -0.591068
   2742 O4         50.3400   30.8300   59.9600 os       125 PET     -0.411922
   2743 HA2        45.0500   28.8900   60.6200 ha       125 PET      0.129090
   2744 HA3        47.3400   28.3300   60.9600 ha       125 PET      0.145907
   2745 HA4        46.2600   32.0100   57.8600 ha       125 PET      0.145907
   2746 HA5        48.5700   31.5400   58.3500 ha       125 PET      0.129090
   2747 H31        52.1000   32.0200   60.3400 h1       125 PET      0.097188
   2748 H32        51.7600   30.6600   61.5000 h1       125 PET      0.097188
   2749 H41        52.3900   30.4000   58.5700 h1       125 PET      0.097188
   2750 H42        52.4400   29.0500   59.7500 h1       125 PET      0.097188
   2751 C1         54.6800   30.5200   61.0100 c        126 PET      0.825469
   2752 CA1        56.1600   30.7100   60.9500 ca       126 PET     -0.163574
   2753 CA2        56.7700   31.2500   62.0900 ca       126 PET     -0.108363
   2754 CA3        58.2200   31.3400   62.1900 ca       126 PET     -0.078542
   2755 CA4        56.9500   30.3500   59.8500 ca       126 PET     -0.078542
   2756 CA5        58.3400   30.5300   59.9300 ca       126 PET     -0.108363
   2757 CA6        59.0000   31.0800   61.0600 ca       126 PET     -0.163574
   2758 C2         60.5100   31.3300   61.1000 c        126 PET      0.825469
   2759 C3         62.5300   31.4500   59.7700 c3       126 PET      0.058627
   2760 C4         63.0800   30.8900   58.4200 c3       126 PET      0.058627
   2761 O1         54.0900   30.3600   59.7900 os       126 PET     -0.411922
   2762 O2         54.0600   30.6100   62.0700 o        126 PET     -0.591068
   2763 O3         61.0800   31.6900   62.0700 o        126 PET     -0.591068
   2764 O4         61.1700   31.0500   59.8800 os       126 PET     -0.411922
   2765 HA2        56.2100   31.4800   62.9900 ha       126 PET      0.129090
   2766 HA3        58.6900   31.8200   63.0500 ha       126 PET      0.145907
   2767 HA4        56.5000   30.0500   58.9000 ha       126 PET      0.145907
   2768 HA5        58.9200   30.2400   59.0700 ha       126 PET      0.129090
   2769 H31        62.5700   32.5400   59.8200 h1       126 PET      0.097188
   2770 H32        63.1200   31.0500   60.5900 h1       126 PET      0.097188
   2771 H41        62.4500   31.1500   57.5600 h1       126 PET      0.097188
   2772 H42        63.3200   29.8200   58.4900 h1       126 PET      0.097188
   2773 C1         65.4200   31.6800   59.0000 c        127 PET      0.825469
   2774 CA1        66.4700   32.6200   58.5600 ca       127 PET     -0.163574
   2775 CA2        66.4300   33.1700   57.3100 ca       127 PET     -0.108363
   2776 CA3        67.4800   33.9100   56.8400 ca       127 PET     -0.078542
   2777 CA4        67.5600   32.9200   59.4000 ca       127 PET     -0.078542
   2778 CA5        68.6600   33.7200   58.8900 ca       127 PET     -0.108363
   2779 CA6        68.6200   34.1100   57.5500 ca       127 PET     -0.163574
   2780 C2         69.7400   34.8500   56.8600 c        127 PET      0.825469
   2781 C3         71.8500   36.1000   57.0700 c3       127 PET      0.058627
   2782 C4         72.9200   35.0400   56.7200 c3       127 PET      0.058627
   2783 O1         64.3100   31.6300   58.2200 os       127 PET     -0.411922
   2784 O2         65.5600   30.9200   59.8900 o        127 PET     -0.591068
   2785 O3         69.7600   34.9900   55.6500 o        127 PET     -0.591068
   2786 O4         70.6900   35.4300   57.7100 os       127 PET     -0.411922
   2787 HA2        65.5600   33.0800   56.6700 ha       127 PET      0.129090
   2788 HA3        67.3400   34.2400   55.8100 ha       127 PET      0.145907
   2789 HA4        67.6500   32.5600   60.4200 ha       127 PET      0.145907
   2790 HA5        69.4600   34.0500   59.5300 ha       127 PET      0.129090
   2791 H31        71.5200   36.7100   56.2200 h1       127 PET      0.097188
   2792 H32        72.3300   36.8000   57.7600 h1       127 PET      0.097188
   2793 H41        72.8100   34.7600   55.6700 h1       127 PET      0.097188
   2794 H42        72.7500   34.1200   57.2900 h1       127 PET      0.097188
   2795 C1         75.2200   34.8100   57.5700 c        128 PET      0.825469
   2796 CA1        76.4600   35.6400   57.9400 ca       128 PET     -0.163574
   2797 CA2        76.6400   36.9900   57.5400 ca       128 PET     -0.108363
   2798 CA3        77.9200   37.6000   57.8500 ca       128 PET     -0.078542
   2799 CA4        77.5400   34.9700   58.6000 ca       128 PET     -0.078542
   2800 CA5        78.6700   35.6400   58.9700 ca       128 PET     -0.108363
   2801 CA6        78.8100   37.0000   58.7200 ca       128 PET     -0.163574
   2802 C2         80.0000   37.6000   59.2900 c        128 PET      0.825469
   2803 C3         81.6500   39.3000   58.7200 c3       128 PET      0.058627
   2804 C4         82.4100   38.4700   57.5900 c3       128 PET      0.058627
   2805 O1         74.2400   35.6100   57.0800 os       128 PET     -0.411922
   2806 O2         75.0600   33.6700   57.8800 o        128 PET     -0.591068
   2807 O3         80.7300   37.0200   60.1200 o        128 PET     -0.591068
   2808 O4         80.2700   38.8400   58.8700 os       128 PET     -0.411922
   2809 HA2        75.8800   37.5100   56.9700 ha       128 PET      0.129090
   2810 HA3        78.0700   38.6300   57.5300 ha       128 PET      0.145907
   2811 HA4        77.3000   33.9600   58.9200 ha       128 PET      0.145907
   2812 HA5        79.3400   35.0800   59.6200 ha       128 PET      0.129090
   2813 H31        81.8200   40.3300   58.3800 h1       128 PET      0.097188
   2814 H32        82.1600   39.1600   59.6800 h1       128 PET      0.097188
   2815 H41        83.0800   39.1700   57.0700 h1       128 PET      0.097188
   2816 H42        81.6100   38.1900   56.8900 h1       128 PET      0.097188
   2817 C1          4.1500   37.3400   58.7500 c        129 PET      0.825469
   2818 CA1         4.8900   36.0100   58.9000 ca       129 PET     -0.163574
   2819 CA2         6.2800   35.8800   58.9200 ca       129 PET     -0.108363
   2820 CA3         6.7900   34.5400   59.0100 ca       129 PET     -0.078542
   2821 CA4         4.0500   34.9100   59.1100 ca       129 PET     -0.078542
   2822 CA5         4.5700   33.6500   59.1600 ca       129 PET     -0.108363
   2823 CA6         5.9400   33.4200   59.0500 ca       129 PET     -0.163574
   2824 C2          6.4400   31.9900   58.9100 c        129 PET      0.825469
   2825 C3          8.4400   30.6200   59.2600 c3       129 PET      0.058627
   2826 C4          8.5000   29.9400   57.9000 c3       129 PET      0.058627
   2827 O1          2.9600   37.2700   58.1000 os       129 PET     -0.411922
   2828 O2          4.5200   38.4000   59.1800 o        129 PET     -0.591068
   2829 O3          5.7700   31.0100   58.6100 o        129 PET     -0.591068
   2830 O4          7.8400   31.9200   59.0500 os       129 PET     -0.411922
   2831 HA2         6.9800   36.7100   58.8300 ha       129 PET      0.129090
   2832 HA3         7.8700   34.4100   58.9600 ha       129 PET      0.145907
   2833 HA4         2.9700   35.0200   59.1400 ha       129 PET      0.145907
   2834 HA5         3.9000   32.8300   59.4200 ha       129 PET      0.129090
   2835 H31         9.5000   30.8000   59.5000 h1       129 PET      0.097188
   2836 H32         8.0300   30.0300   60.0800 h1       129 PET      0.097188
   2837 H41         9.2500   30.4500   57.2900 h1       129 PET      0.097188
   2838 H42         7.5300   30.0800   57.3900 h1       129 PET      0.097188
   2839 C1          8.0300   27.5400   57.5000 c        130 PET      0.825469
   2840 CA1         8.5100   26.0700   57.8000 ca       130 PET     -0.163574
   2841 CA2         7.6500   24.9700   57.7400 ca       130 PET     -0.108363
   2842 CA3         8.1800   23.6900   57.9900 ca       130 PET     -0.078542
   2843 CA4         9.8700   25.8800   58.2000 ca       130 PET     -0.078542
   2844 CA5        10.3500   24.5200   58.3600 ca       130 PET     -0.108363
   2845 CA6         9.5200   23.4400   58.3100 ca       130 PET     -0.163574
   2846 C2         10.0200   22.1200   58.6400 c        130 PET      0.825469
   2847 C3         11.8400   20.7900   59.7100 c3       130 PET      0.058627
   2848 C4         12.8100   21.0900   60.9100 c3       130 PET      0.058627
   2849 O1          8.7200   28.5400   58.1500 os       130 PET     -0.411922
   2850 O2          7.1400   27.7100   56.6600 o        130 PET     -0.591068
   2851 O3          9.4600   21.0900   58.1800 o        130 PET     -0.591068
   2852 O4         11.1200   22.0400   59.4000 os       130 PET     -0.411922
   2853 HA2         6.5900   25.0800   57.5000 ha       130 PET      0.129090
   2854 HA3         7.5000   22.8600   57.8000 ha       130 PET      0.145907
   2855 HA4        10.5200   26.7200   58.4100 ha       130 PET      0.145907
   2856 HA5        11.3400   24.4800   58.8000 ha       130 PET      0.129090
   2857 H31        11.1300   20.0400   60.0800 h1       130 PET      0.097188
   2858 H32        12.3600   20.4900   58.7900 h1       130 PET      0.097188
   2859 H41        12.5100   20.5000   61.7800 h1       130 PET      0.097188
   2860 H42        12.7200   22.1600   61.1600 h1       130 PET      0.097188
   2861 C1         14.9300   21.7000   60.0100 c        131 PET      0.825469
   2862 CA1        16.3600   21.3400   59.9400 ca       131 PET     -0.163574
   2863 CA2        16.8200   19.9800   60.1700 ca       131 PET     -0.108363
   2864 CA3        18.1400   19.6500   60.0800 ca       131 PET     -0.078542
   2865 CA4        17.3400   22.3600   59.6800 ca       131 PET     -0.078542
   2866 CA5        18.7200   21.9900   59.6100 ca       131 PET     -0.108363
   2867 CA6        19.0700   20.6500   59.7700 ca       131 PET     -0.163574
   2868 C2         20.5200   20.2500   59.7700 c        131 PET      0.825469
   2869 C3         22.8300   21.1600   59.8000 c3       131 PET      0.058627
   2870 C4         23.6100   20.0200   59.2000 c3       131 PET      0.058627
   2871 O1         14.1900   20.7700   60.6400 os       131 PET     -0.411922
   2872 O2         14.5200   22.7800   59.5700 o        131 PET     -0.591068
   2873 O3         20.8400   19.1300   60.0400 o        131 PET     -0.591068
   2874 O4         21.4400   21.2200   59.4100 os       131 PET     -0.411922
   2875 HA2        16.0500   19.2100   60.2700 ha       131 PET      0.129090
   2876 HA3        18.4300   18.6300   60.2900 ha       131 PET      0.145907
   2877 HA4        17.1100   23.4100   59.5200 ha       131 PET      0.145907
   2878 HA5        19.5100   22.7100   59.4600 ha       131 PET      0.129090
   2879 H31        23.3700   22.1000   59.6100 h1       131 PET      0.097188
   2880 H32        22.9000   21.0000   60.8800 h1       131 PET      0.097188
   2881 H41        23.2700   19.8200   58.1800 h1       131 PET      0.097188
   2882 H42        23.5400   19.1100   59.8200 h1       131 PET      0.097188
   2883 C1         25.6900   21.3200   58.4700 c        132 PET      0.825469
   2884 CA1        27.2100   21.2900   58.5500 ca       132 PET     -0.163574
   2885 CA2        27.8900   20.0900   58.8600 ca       132 PET     -0.108363
   2886 CA3        29.2400   20.0200   58.9400 ca       132 PET     -0.078542
   2887 CA4        27.9400   22.3900   58.0900 ca       132 PET     -0.078542
   2888 CA5        29.3400   22.3600   58.1000 ca       132 PET     -0.108363
   2889 CA6        29.9900   21.1100   58.4600 ca       132 PET     -0.163574
   2890 C2         31.5200   20.9900   58.5600 c        132 PET      0.825469
   2891 C3         33.4400   19.5400   58.5200 c3       132 PET      0.058627
   2892 C4         33.9200   19.7100   57.0700 c3       132 PET      0.058627
   2893 O1         25.1000   20.3300   59.2100 os       132 PET     -0.411922
   2894 O2         25.1300   22.1500   57.8000 o        132 PET     -0.591068
   2895 O3         32.2300   21.9900   58.6200 o        132 PET     -0.591068
   2896 O4         31.9900   19.7200   58.5600 os       132 PET     -0.411922
   2897 HA2        27.3300   19.3100   59.3600 ha       132 PET      0.129090
   2898 HA3        29.7800   19.1600   59.3400 ha       132 PET      0.145907
   2899 HA4        27.5400   23.3600   57.8000 ha       132 PET      0.145907
   2900 HA5        29.9100   23.2100   57.7400 ha       132 PET      0.129090
   2901 H31        33.9100   20.2100   59.2600 h1       132 PET      0.097188
   2902 H32        33.7000   18.5000   58.7500 h1       132 PET      0.097188
   2903 H41        32.9500   19.7500   56.5500 h1       132 PET      0.097188
   2904 H42        34.4100   18.7900   56.7000 h1       132 PET      0.097188
   2905 C1         35.8100   21.2800   57.5100 c        133 PET      0.825469
   2906 CA1        36.2100   22.7300   57.3100 ca       133 PET     -0.163574
   2907 CA2        35.4200   23.5900   56.5400 ca       133 PET     -0.108363
   2908 CA3        35.8000   24.8800   56.3100 ca       133 PET     -0.078542
   2909 CA4        37.3200   23.2200   57.9300 ca       133 PET     -0.078542
   2910 CA5        37.7700   24.4900   57.6000 ca       133 PET     -0.108363
   2911 CA6        36.9600   25.4000   56.8100 ca       133 PET     -0.163574
   2912 C2         37.5200   26.6600   56.3000 c        133 PET      0.825469
   2913 C3         39.5500   27.8100   55.9500 c3       133 PET      0.058627
   2914 C4         40.8200   28.1900   56.6500 c3       133 PET      0.058627
   2915 O1         34.6400   20.9600   56.8600 os       133 PET     -0.411922
   2916 O2         36.4500   20.4100   58.0800 o        133 PET     -0.591068
   2917 O3         37.0200   27.4800   55.5400 o        133 PET     -0.591068
   2918 O4         38.8500   26.7700   56.6400 os       133 PET     -0.411922
   2919 HA2        34.5700   23.1500   56.0300 ha       133 PET      0.129090
   2920 HA3        35.0900   25.5500   55.8300 ha       133 PET      0.145907
   2921 HA4        38.0200   22.5500   58.4100 ha       133 PET      0.145907
   2922 HA5        38.7000   24.8600   58.0000 ha       133 PET      0.129090
   2923 H31        39.6800   27.4900   54.9100 h1       133 PET      0.097188
   2924 H32        38.9500   28.7300   55.8700 h1       133 PET      0.097188
   2925 H41        40.7900   28.4700   57.7100 h1       133 PET      0.097188
   2926 H42        41.1000   29.1700   56.2500 h1       133 PET      0.097188
   2927 C1         43.0200   27.2100   57.1700 c        134 PET      0.825469
   2928 CA1        44.0000   26.2600   56.6700 ca       134 PET     -0.163574
   2929 CA2        43.6600   24.9600   56.4400 ca       134 PET     -0.108363
   2930 CA3        44.5300   24.0300   55.9300 ca       134 PET     -0.078542
   2931 CA4        45.3900   26.5900   56.5400 ca       134 PET     -0.078542
   2932 CA5        46.3200   25.6400   56.1100 ca       134 PET     -0.108363
   2933 CA6        45.8600   24.3400   55.7300 ca       134 PET     -0.163574
   2934 C2         46.8100   23.3800   55.0600 c        134 PET      0.825469
   2935 C3         49.1700   23.1000   54.4900 c3       134 PET      0.058627
   2936 C4         49.1300   22.8400   53.0100 c3       134 PET      0.058627
   2937 O1         41.7700   27.1500   56.4800 os       134 PET     -0.411922
   2938 O2         43.2100   28.0600   58.0500 o        134 PET     -0.591068
   2939 O3         46.4900   22.2200   54.7100 o        134 PET     -0.591068
   2940 O4         48.0500   23.8700   55.0100 os       134 PET     -0.411922
   2941 HA2        42.6200   24.7000   56.5600 ha       134 PET      0.129090
   2942 HA3        44.1300   23.0500   55.7000 ha       134 PET      0.145907
   2943 HA4        45.6600   27.5600   56.9400 ha       134 PET      0.145907
   2944 HA5        47.3700   25.9200   56.0400 ha       134 PET      0.129090
   2945 H31        50.1000   23.5700   54.8500 h1       134 PET      0.097188
   2946 H32        49.0700   22.1100   54.9500 h1       134 PET      0.097188
   2947 H41        48.8900   23.6700   52.3300 h1       134 PET      0.097188
   2948 H42        48.4600   21.9800   52.9100 h1       134 PET      0.097188
   2949 C1         51.3600   23.3100   52.2100 c        135 PET      0.825469
   2950 CA1        52.8100   22.8200   52.1200 ca       135 PET     -0.163574
   2951 CA2        53.0600   21.4900   52.5000 ca       135 PET     -0.108363
   2952 CA3        54.3700   20.9500   52.4100 ca       135 PET     -0.078542
   2953 CA4        53.9500   23.7100   51.9000 ca       135 PET     -0.078542
   2954 CA5        55.2500   23.1500   52.0100 ca       135 PET     -0.108363
   2955 CA6        55.4800   21.7600   52.1500 ca       135 PET     -0.163574
   2956 C2         56.8600   21.1600   52.0600 c        135 PET      0.825469
   2957 C3         59.2900   21.7400   52.0900 c3       135 PET      0.058627
   2958 C4         60.1300   23.0200   52.2400 c3       135 PET      0.058627
   2959 O1         50.4000   22.4000   52.5500 os       135 PET     -0.411922
   2960 O2         51.0700   24.5000   52.0600 o        135 PET     -0.591068
   2961 O3         57.0200   19.9700   51.9200 o        135 PET     -0.591068
   2962 O4         57.8900   22.0400   52.1600 os       135 PET     -0.411922
   2963 HA2        52.2400   20.7900   52.6500 ha       135 PET      0.129090
   2964 HA3        54.5200   19.8800   52.5700 ha       135 PET      0.145907
   2965 HA4        53.8700   24.7700   51.7100 ha       135 PET      0.145907
   2966 HA5        56.0700   23.8600   51.9400 ha       135 PET      0.129090
   2967 H31        59.5900   20.9800   52.8200 h1       135 PET      0.097188
   2968 H32        59.5200   21.3300   51.1000 h1       135 PET      0.097188
   2969 H41        60.0500   23.6700   53.1200 h1       135 PET      0.097188
   2970 H42        59.7900   23.7600   51.5000 h1       135 PET      0.097188
   2971 C1         62.4800   23.7900   51.9500 c        136 PET      0.825469
   2972 CA1        63.8800   23.3400   51.9200 ca       136 PET     -0.163574
   2973 CA2        64.1900   21.9700   51.8200 ca       136 PET     -0.108363
   2974 CA3        65.4800   21.5000   51.7900 ca       136 PET     -0.078542
   2975 CA4        64.9200   24.3100   51.9900 ca       136 PET     -0.078542
   2976 CA5        66.2800   23.8400   51.9600 ca       136 PET     -0.108363
   2977 CA6        66.5600   22.4200   51.8800 ca       136 PET     -0.163574
   2978 C2         67.9500   21.8100   52.0400 c        136 PET      0.825469
   2979 C3         70.2200   22.4500   52.8400 c3       136 PET      0.058627
   2980 C4         70.7500   23.6200   53.6500 c3       136 PET      0.058627
   2981 O1         61.5500   22.7900   51.9500 os       136 PET     -0.411922
   2982 O2         62.2300   25.0000   52.0200 o        136 PET     -0.591068
   2983 O3         68.2200   20.6900   51.6200 o        136 PET     -0.591068
   2984 O4         68.8900   22.7600   52.3700 os       136 PET     -0.411922
   2985 HA2        63.4100   21.2200   51.7900 ha       136 PET      0.129090
   2986 HA3        65.7400   20.4400   51.8300 ha       136 PET      0.145907
   2987 HA4        64.6300   25.3500   52.0600 ha       136 PET      0.145907
   2988 HA5        67.1100   24.5500   51.9700 ha       136 PET      0.129090
   2989 H31        70.1200   21.5300   53.4400 h1       136 PET      0.097188
   2990 H32        70.9300   22.3400   52.0100 h1       136 PET      0.097188
   2991 H41        70.2000   23.5800   54.6000 h1       136 PET      0.097188
   2992 H42        70.4000   24.5900   53.2700 h1       136 PET      0.097188
   2993 C1         72.9700   24.3600   52.9000 c        137 PET      0.825469
   2994 CA1        74.4800   24.1100   52.9300 ca       137 PET     -0.163574
   2995 CA2        75.2100   24.4700   51.8100 ca       137 PET     -0.108363
   2996 CA3        76.5200   24.2000   51.8100 ca       137 PET     -0.078542
   2997 CA4        75.1100   23.5000   53.9600 ca       137 PET     -0.078542
   2998 CA5        76.4800   23.3200   54.0300 ca       137 PET     -0.108363
   2999 CA6        77.2500   23.6500   52.9000 ca       137 PET     -0.163574
   3000 C2         78.7600   23.4500   52.6800 c        137 PET      0.825469
   3001 C3         80.9200   23.0900   53.8500 c3       137 PET      0.058627
   3002 C4         81.6400   24.2900   53.2200 c3       137 PET      0.058627
   3003 O1         72.2000   23.5400   53.7000 os       137 PET     -0.411922
   3004 O2         72.4900   25.2800   52.3600 o        137 PET     -0.591068
   3005 O3         79.1900   23.2100   51.5700 o        137 PET     -0.591068
   3006 O4         79.4300   23.3200   53.9000 os       137 PET     -0.411922
   3007 HA2        74.7500   24.9700   50.9600 ha       137 PET      0.129090
   3008 HA3        77.0200   24.5000   50.8900 ha       137 PET      0.145907
   3009 HA4        74.5600   23.3000   54.8800 ha       137 PET      0.145907
   3010 HA5        76.9500   22.7900   54.8600 ha       137 PET      0.129090
   3011 H31        81.2400   22.8900   54.8900 h1       137 PET      0.097188
   3012 H32        81.1000   22.1900   53.2400 h1       137 PET      0.097188
   3013 H41        81.1600   25.1700   53.6600 h1       137 PET      0.097188
   3014 H42        81.4500   24.2800   52.1400 h1       137 PET      0.097188
   3015 C1          3.9400   25.1000   52.8100 c        138 PET      0.825469
   3016 CA1         5.4500   25.0500   53.2000 ca       138 PET     -0.163574
   3017 CA2         5.7900   24.2200   54.2600 ca       138 PET     -0.108363
   3018 CA3         7.1400   24.0600   54.5900 ca       138 PET     -0.078542
   3019 CA4         6.4100   25.7500   52.4400 ca       138 PET     -0.078542
   3020 CA5         7.7500   25.6400   52.8200 ca       138 PET     -0.108363
   3021 CA6         8.1300   24.7400   53.8400 ca       138 PET     -0.163574
   3022 C2          9.6200   24.3700   54.0300 c        138 PET      0.825469
   3023 C3         10.9800   22.7500   55.0600 c3       138 PET      0.058627
   3024 C4         12.1300   23.5200   55.7600 c3       138 PET      0.058627
   3025 O1          3.0800   24.2600   53.5400 os       138 PET     -0.411922
   3026 O2          3.4700   25.9300   52.0000 o        138 PET     -0.591068
   3027 O3         10.5300   24.9300   53.4600 o        138 PET     -0.591068
   3028 O4          9.7200   23.3800   54.9100 os       138 PET     -0.411922
   3029 HA2         5.0700   23.6500   54.8500 ha       138 PET      0.129090
   3030 HA3         7.3200   23.3400   55.3900 ha       138 PET      0.145907
   3031 HA4         6.1600   26.3400   51.5700 ha       138 PET      0.145907
   3032 HA5         8.5600   26.0800   52.2500 ha       138 PET      0.129090
   3033 H31        10.8300   21.8500   55.6500 h1       138 PET      0.097188
   3034 H32        11.3800   22.4500   54.0800 h1       138 PET      0.097188
   3035 H41        11.9700   23.5500   56.8500 h1       138 PET      0.097188
   3036 H42        12.1000   24.5400   55.3500 h1       138 PET      0.097188
   3037 C1         13.8800   21.9100   55.8800 c        139 PET      0.825469
   3038 CA1        15.0500   21.3100   55.1900 ca       139 PET     -0.163574
   3039 CA2        16.1400   22.1400   54.9500 ca       139 PET     -0.108363
   3040 CA3        17.3100   21.6400   54.3100 ca       139 PET     -0.078542
   3041 CA4        15.1400   19.9700   54.9000 ca       139 PET     -0.078542
   3042 CA5        16.3200   19.4600   54.3400 ca       139 PET     -0.108363
   3043 CA6        17.3900   20.3000   53.9300 ca       139 PET     -0.163574
   3044 C2         18.6300   19.7400   53.2200 c        139 PET      0.825469
   3045 C3         20.9200   20.2100   52.4400 c3       139 PET      0.058627
   3046 C4         22.0000   21.3000   52.3600 c3       139 PET      0.058627
   3047 O1         13.4700   23.0900   55.3700 os       139 PET     -0.411922
   3048 O2         13.1800   21.2700   56.6300 o        139 PET     -0.591068
   3049 O3         18.7300   18.6400   52.6800 o        139 PET     -0.591068
   3050 O4         19.7000   20.6600   53.1700 os       139 PET     -0.411922
   3051 HA2        15.9800   23.2000   55.1300 ha       139 PET      0.129090
   3052 HA3        18.0800   22.3800   54.1000 ha       139 PET      0.145907
   3053 HA4        14.3700   19.3300   55.3100 ha       139 PET      0.145907
   3054 HA5        16.4700   18.3900   54.3400 ha       139 PET      0.129090
   3055 H31        21.3800   19.3300   52.9200 h1       139 PET      0.097188
   3056 H32        20.6300   19.9300   51.4200 h1       139 PET      0.097188
   3057 H41        22.0000   21.6600   53.4000 h1       139 PET      0.097188
   3058 H42        21.7700   22.1600   51.7200 h1       139 PET      0.097188
   3059 C1         24.4100   21.4600   52.0800 c        140 PET      0.825469
   3060 CA1        25.6700   20.6700   51.8400 ca       140 PET     -0.163574
   3061 CA2        25.6800   19.2800   51.5500 ca       140 PET     -0.108363
   3062 CA3        26.8500   18.5000   51.6500 ca       140 PET     -0.078542
   3063 CA4        26.9200   21.3000   51.9300 ca       140 PET     -0.078542
   3064 CA5        28.1200   20.5300   51.9800 ca       140 PET     -0.108363
   3065 CA6        28.1200   19.0800   51.8500 ca       140 PET     -0.163574
   3066 C2         29.3700   18.2300   52.0700 c        140 PET      0.825469
   3067 C3         31.7700   18.2300   52.3500 c3       140 PET      0.058627
   3068 C4         32.9800   19.2000   52.2100 c3       140 PET      0.058627
   3069 O1         23.2500   20.6700   52.0500 os       140 PET     -0.411922
   3070 O2         24.4000   22.6600   52.2700 o        140 PET     -0.591068
   3071 O3         29.3100   17.0000   52.1700 o        140 PET     -0.591068
   3072 O4         30.5500   19.0200   52.1900 os       140 PET     -0.411922
   3073 HA2        24.7300   18.7800   51.4000 ha       140 PET      0.129090
   3074 HA3        26.7800   17.4100   51.6100 ha       140 PET      0.145907
   3075 HA4        26.8900   22.3800   52.0500 ha       140 PET      0.145907
   3076 HA5        29.0900   21.0200   51.9900 ha       140 PET      0.129090
   3077 H31        31.7700   17.7200   53.3200 h1       140 PET      0.097188
   3078 H32        31.7600   17.4900   51.5300 h1       140 PET      0.097188
   3079 H41        33.1000   19.8200   53.1100 h1       140 PET      0.097188
   3080 H42        32.7800   19.8300   51.3400 h1       140 PET      0.097188
   3081 C1         35.4200   18.8600   51.8900 c        141 PET      0.825469
   3082 CA1        36.5200   17.8900   51.9400 ca       141 PET     -0.163574
   3083 CA2        36.3500   16.4700   51.8800 ca       141 PET     -0.108363
   3084 CA3        37.5400   15.6900   52.0800 ca       141 PET     -0.078542
   3085 CA4        37.8400   18.4000   51.9800 ca       141 PET     -0.078542
   3086 CA5        38.9200   17.5500   52.2400 ca       141 PET     -0.108363
   3087 CA6        38.8100   16.2100   52.3100 ca       141 PET     -0.163574
   3088 C2         39.9900   15.2500   52.4600 c        141 PET      0.825469
   3089 C3         42.3500   14.8700   52.7200 c3       141 PET      0.058627
   3090 C4         43.7700   15.5700   52.9300 c3       141 PET      0.058627
   3091 O1         34.1000   18.3200   51.9100 os       141 PET     -0.411922
   3092 O2         35.6000   20.1100   51.9100 o        141 PET     -0.591068
   3093 O3         39.8500   14.0800   52.2900 o        141 PET     -0.591068
   3094 O4         41.2400   15.8300   52.5600 os       141 PET     -0.411922
   3095 HA2        35.3800   15.9800   51.8300 ha       141 PET      0.129090
   3096 HA3        37.4600   14.6100   52.0000 ha       141 PET      0.145907
   3097 HA4        38.1100   19.4500   51.9500 ha       141 PET      0.145907
   3098 HA5        39.8800   18.0400   52.3800 ha       141 PET      0.129090
   3099 H31        42.1400   14.2900   53.6200 h1       141 PET      0.097188
   3100 H32        42.5200   14.3000   51.7900 h1       141 PET      0.097188
   3101 H41        44.4500   15.0600   52.2400 h1       141 PET      0.097188
   3102 H42        44.0700   15.3600   53.9700 h1       141 PET      0.097188
   3103 C1         44.5100   17.8800   52.2600 c        142 PET      0.825469
   3104 CA1        44.0200   19.3300   52.3500 ca       142 PET     -0.163574
   3105 CA2        44.9900   20.3400   52.1100 ca       142 PET     -0.108363
   3106 CA3        44.5600   21.7300   52.0100 ca       142 PET     -0.078542
   3107 CA4        42.6800   19.6600   52.7300 ca       142 PET     -0.078542
   3108 CA5        42.2200   20.9800   52.6300 ca       142 PET     -0.108363
   3109 CA6        43.1800   21.9800   52.2600 ca       142 PET     -0.163574
   3110 C2         42.6100   23.4200   52.2600 c        142 PET      0.825469
   3111 C3         43.1100   25.7200   51.7400 c3       142 PET      0.058627
   3112 C4         43.6000   26.0800   53.2200 c3       142 PET      0.058627
   3113 O1         43.6300   16.9800   52.7300 os       142 PET     -0.411922
   3114 O2         45.6000   17.5400   51.9100 o        142 PET     -0.591068
   3115 O3         41.5100   23.7600   52.6400 o        142 PET     -0.591068
   3116 O4         43.4200   24.3500   51.6900 os       142 PET     -0.411922
   3117 HA2        46.0400   20.1400   51.9300 ha       142 PET      0.129090
   3118 HA3        45.3500   22.4600   51.8700 ha       142 PET      0.145907
   3119 HA4        42.0700   18.7900   52.9600 ha       142 PET      0.145907
   3120 HA5        41.2000   21.1900   52.9200 ha       142 PET      0.129090
   3121 H31        43.6900   26.2800   51.0000 h1       142 PET      0.097188
   3122 H32        42.0400   25.9400   51.5900 h1       142 PET      0.097188
   3123 H41        43.7600   25.1300   53.7300 h1       142 PET      0.097188
   3124 H42        42.7900   26.5900   53.7500 h1       142 PET      0.097188
   3125 C1         45.9500   26.2400   52.6800 c        143 PET      0.825469
   3126 CA1        47.0500   27.2200   52.5300 ca       143 PET     -0.163574
   3127 CA2        46.9000   28.6200   52.3600 ca       143 PET     -0.108363
   3128 CA3        48.0300   29.4800   52.2800 ca       143 PET     -0.078542
   3129 CA4        48.3700   26.7200   52.5300 ca       143 PET     -0.078542
   3130 CA5        49.4600   27.6300   52.3300 ca       143 PET     -0.108363
   3131 CA6        49.3100   28.9700   52.2600 ca       143 PET     -0.163574
   3132 C2         50.5000   29.8300   52.1800 c        143 PET      0.825469
   3133 C3         53.0600   29.5400   52.2700 c3       143 PET      0.058627
   3134 C4         53.9600   28.3200   52.3000 c3       143 PET      0.058627
   3135 O1         44.8300   26.8200   53.1600 os       143 PET     -0.411922
   3136 O2         46.1600   25.0600   52.4400 o        143 PET     -0.591068
   3137 O3         50.4600   30.9500   51.8200 o        143 PET     -0.591068
   3138 O4         51.7100   29.1200   52.4800 os       143 PET     -0.411922
   3139 HA2        45.8800   29.0100   52.3800 ha       143 PET      0.129090
   3140 HA3        47.9000   30.5600   52.2600 ha       143 PET      0.145907
   3141 HA4        48.5400   25.6500   52.5100 ha       143 PET      0.145907
   3142 HA5        50.4000   27.1100   52.1600 ha       143 PET      0.129090
   3143 H31        53.2300   30.1400   51.3600 h1       143 PET      0.097188
   3144 H32        53.3600   30.2100   53.0900 h1       143 PET      0.097188
   3145 H41        53.8900   27.6800   51.4100 h1       143 PET      0.097188
   3146 H42        53.6000   27.6700   53.1100 h1       143 PET      0.097188
   3147 C1         56.3700   27.8700   52.3400 c        144 PET      0.825469
   3148 CA1        57.7100   28.4200   52.2100 ca       144 PET     -0.163574
   3149 CA2        58.8700   27.6200   52.1700 ca       144 PET     -0.108363
   3150 CA3        60.1500   28.1200   51.9800 ca       144 PET     -0.078542
   3151 CA4        57.8800   29.8400   52.0400 ca       144 PET     -0.078542
   3152 CA5        59.2000   30.3400   51.9600 ca       144 PET     -0.108363
   3153 CA6        60.3800   29.5200   51.9400 ca       144 PET     -0.163574
   3154 C2         61.7200   30.0800   51.7300 c        144 PET      0.825469
   3155 C3         64.1100   29.5900   52.1400 c3       144 PET      0.058627
   3156 C4         65.1200   28.4800   51.9500 c3       144 PET      0.058627
   3157 O1         55.3500   28.7500   52.4900 os       144 PET     -0.411922
   3158 O2         56.1600   26.6500   52.1600 o        144 PET     -0.591068
   3159 O3         61.8800   31.2400   51.4100 o        144 PET     -0.591068
   3160 O4         62.7800   29.1700   51.9600 os       144 PET     -0.411922
   3161 HA2        58.7800   26.5400   52.2400 ha       144 PET      0.129090
   3162 HA3        60.9600   27.3900   51.9400 ha       144 PET      0.145907
   3163 HA4        57.1000   30.5700   52.2300 ha       144 PET      0.145907
   3164 HA5        59.2900   31.4000   51.7400 ha       144 PET      0.129090
   3165 H31        64.3800   30.4600   51.5200 h1       144 PET      0.097188
   3166 H32        64.1600   29.9500   53.1700 h1       144 PET      0.097188
   3167 H41        64.9200   28.1100   50.9400 h1       144 PET      0.097188
   3168 H42        64.9000   27.7000   52.6900 h1       144 PET      0.097188
   3169 C1         67.4800   28.3000   52.0200 c        145 PET      0.825469
   3170 CA1        68.7800   28.9500   52.0100 ca       145 PET     -0.163574
   3171 CA2        69.9400   28.2000   52.1800 ca       145 PET     -0.108363
   3172 CA3        71.2100   28.8100   52.2800 ca       145 PET     -0.078542
   3173 CA4        68.9000   30.3400   51.9100 ca       145 PET     -0.078542
   3174 CA5        70.1300   31.0200   51.9700 ca       145 PET     -0.108363
   3175 CA6        71.3500   30.2300   52.1400 ca       145 PET     -0.163574
   3176 C2         72.6400   30.9400   52.2400 c        145 PET      0.825469
   3177 C3         73.8700   32.9000   51.5900 c3       145 PET      0.058627
   3178 C4         74.1900   33.6100   52.8600 c3       145 PET      0.058627
   3179 O1         66.3600   29.1200   52.1600 os       145 PET     -0.411922
   3180 O2         67.4100   27.0900   51.9300 o        145 PET     -0.591068
   3181 O3         73.6300   30.3500   52.5600 o        145 PET     -0.591068
   3182 O4         72.6200   32.1900   51.6400 os       145 PET     -0.411922
   3183 HA2        69.8800   27.1200   52.1900 ha       145 PET      0.129090
   3184 HA3        72.0500   28.1200   52.2900 ha       145 PET      0.145907
   3185 HA4        67.9900   30.9000   51.7700 ha       145 PET      0.145907
   3186 HA5        70.1000   32.0900   51.8200 ha       145 PET      0.129090
   3187 H31        74.7300   32.2500   51.3800 h1       145 PET      0.097188
   3188 H32        73.7200   33.6700   50.8200 h1       145 PET      0.097188
   3189 H41        74.4600   32.9000   53.6500 h1       145 PET      0.097188
   3190 H42        73.3600   34.2300   53.2100 h1       145 PET      0.097188
   3191 C1         -4.1700   35.2900   53.4100 c        146 PET      0.825469
   3192 CA1        -2.7800   35.8400   53.1200 ca       146 PET     -0.163574
   3193 CA2        -1.8900   35.2100   52.2300 ca       146 PET     -0.108363
   3194 CA3        -0.6600   35.8400   51.9700 ca       146 PET     -0.078542
   3195 CA4        -2.4000   36.9300   53.8800 ca       146 PET     -0.078542
   3196 CA5        -1.2000   37.6000   53.4900 ca       146 PET     -0.108363
   3197 CA6        -0.2800   37.0900   52.6000 ca       146 PET     -0.163574
   3198 C2          1.0800   37.6700   52.3400 c        146 PET      0.825469
   3199 C3          2.5400   39.5300   53.0100 c3       146 PET      0.058627
   3200 C4          3.0000   40.2100   51.6800 c3       146 PET      0.058627
   3201 O1         -4.6400   34.3700   52.4600 os       146 PET     -0.411922
   3202 O2         -4.7300   35.5600   54.4500 o        146 PET     -0.591068
   3203 O3          1.9000   37.0700   51.7000 o        146 PET     -0.591068
   3204 O4          1.2300   38.8900   52.9000 os       146 PET     -0.411922
   3205 HA2        -2.0900   34.2400   51.7800 ha       146 PET      0.129090
   3206 HA3         0.0700   35.2900   51.3800 ha       146 PET      0.145907
   3207 HA4        -3.0300   37.3500   54.6600 ha       146 PET      0.145907
   3208 HA5        -0.9700   38.4900   54.0700 ha       146 PET      0.129090
   3209 H31         2.4400   40.3100   53.7700 h1       146 PET      0.097188
   3210 H32         3.2400   38.7900   53.4200 h1       146 PET      0.097188
   3211 H41         2.1600   40.7200   51.1900 h1       146 PET      0.097188
   3212 H42         3.0600   39.4600   50.8800 h1       146 PET      0.097188
   3213 C1          4.1900   42.3700   52.1500 c        147 PET      0.825469
   3214 CA1         5.5500   43.1100   52.1700 ca       147 PET     -0.163574
   3215 CA2         5.6100   44.5000   51.9100 ca       147 PET     -0.108363
   3216 CA3         6.8200   45.1500   51.8700 ca       147 PET     -0.078542
   3217 CA4         6.7500   42.4000   52.3900 ca       147 PET     -0.078542
   3218 CA5         7.9900   42.9800   52.3200 ca       147 PET     -0.108363
   3219 CA6         8.0800   44.3900   52.0500 ca       147 PET     -0.163574
   3220 C2          9.3700   45.2400   52.0500 c        147 PET      0.825469
   3221 C3         11.5800   45.3600   52.8400 c3       147 PET      0.058627
   3222 C4         12.8000   44.4500   52.9700 c3       147 PET      0.058627
   3223 O1          4.2300   41.0200   51.8700 os       147 PET     -0.411922
   3224 O2          3.1500   42.9800   52.4700 o        147 PET     -0.591068
   3225 O3          9.3000   46.4700   51.9400 o        147 PET     -0.591068
   3226 O4         10.4800   44.5600   52.4000 os       147 PET     -0.411922
   3227 HA2         4.6900   45.0500   51.7400 ha       147 PET      0.129090
   3228 HA3         6.8000   46.2000   51.5900 ha       147 PET      0.145907
   3229 HA4         6.6900   41.3500   52.6700 ha       147 PET      0.145907
   3230 HA5         8.8900   42.3900   52.5000 ha       147 PET      0.129090
   3231 H31        11.8400   46.0400   52.0200 h1       147 PET      0.097188
   3232 H32        11.4300   45.8200   53.8300 h1       147 PET      0.097188
   3233 H41        13.6400   44.8400   53.5500 h1       147 PET      0.097188
   3234 H42        13.2300   44.2400   51.9800 h1       147 PET      0.097188
   3235 C1         13.1300   42.2200   53.8500 c        148 PET      0.825469
   3236 CA1        12.4200   41.1600   54.6900 ca       148 PET     -0.163574
   3237 CA2        11.0800   41.2700   54.9300 ca       148 PET     -0.108363
   3238 CA3        10.5200   40.3000   55.8500 ca       148 PET     -0.078542
   3239 CA4        13.2100   40.0600   55.0600 ca       148 PET     -0.078542
   3240 CA5        12.6600   38.9600   55.7300 ca       148 PET     -0.108363
   3241 CA6        11.3100   39.1400   56.2400 ca       148 PET     -0.163574
   3242 C2         10.8100   38.2000   57.3000 c        148 PET      0.825469
   3243 C3         10.7700   35.9600   58.2300 c3       148 PET      0.058627
   3244 C4         10.9100   34.5600   57.5800 c3       148 PET      0.058627
   3245 O1         12.3100   43.2400   53.5400 os       148 PET     -0.411922
   3246 O2         14.2900   42.3100   53.6000 o        148 PET     -0.591068
   3247 O3         10.0800   38.6900   58.1800 o        148 PET     -0.591068
   3248 O4         11.1900   36.8600   57.2200 os       148 PET     -0.411922
   3249 HA2        10.4500   42.0800   54.5600 ha       148 PET      0.129090
   3250 HA3         9.6000   40.4800   56.3900 ha       148 PET      0.145907
   3251 HA4        14.2600   40.0600   54.8100 ha       148 PET      0.145907
   3252 HA5        13.2400   38.1200   56.1000 ha       148 PET      0.129090
   3253 H31        11.4200   35.9900   59.1100 h1       148 PET      0.097188
   3254 H32         9.7500   36.0800   58.6000 h1       148 PET      0.097188
   3255 H41        10.6700   34.5700   56.5100 h1       148 PET      0.097188
   3256 H42        10.2800   33.8100   58.0800 h1       148 PET      0.097188
   3257 C1         12.7800   32.9100   57.3400 c        149 PET      0.825469
   3258 CA1        14.2000   32.5700   57.6600 ca       149 PET     -0.163574
   3259 CA2        14.5000   31.2100   57.5700 ca       149 PET     -0.108363
   3260 CA3        15.7700   30.7900   57.7400 ca       149 PET     -0.078542
   3261 CA4        15.1800   33.5400   57.9700 ca       149 PET     -0.078542
   3262 CA5        16.4800   33.1000   58.1500 ca       149 PET     -0.108363
   3263 CA6        16.7400   31.7300   58.1800 ca       149 PET     -0.163574
   3264 C2         18.2100   31.3100   58.3000 c        149 PET      0.825469
   3265 C3         19.5000   29.2000   58.4400 c3       149 PET      0.058627
   3266 C4         20.6700   29.3600   57.4100 c3       149 PET      0.058627
   3267 O1         12.3500   34.1400   57.8000 os       149 PET     -0.411922
   3268 O2         12.0300   32.2400   56.6700 o        149 PET     -0.591068
   3269 O3         19.1800   32.0500   58.4500 o        149 PET     -0.591068
   3270 O4         18.3000   29.8900   58.1900 os       149 PET     -0.411922
   3271 HA2        13.7000   30.4900   57.4400 ha       149 PET      0.129090
   3272 HA3        16.0400   29.7500   57.6500 ha       149 PET      0.145907
   3273 HA4        14.9000   34.5800   57.8500 ha       149 PET      0.145907
   3274 HA5        17.2700   33.8200   58.3300 ha       149 PET      0.129090
   3275 H31        19.9500   29.6300   59.3400 h1       149 PET      0.097188
   3276 H32        19.2900   28.1500   58.6800 h1       149 PET      0.097188
   3277 H41        20.7200   30.4300   57.1600 h1       149 PET      0.097188
   3278 H42        20.5100   28.7600   56.5000 h1       149 PET      0.097188
   3279 C1         22.2100   27.6600   58.3100 c        150 PET      0.825469
   3280 CA1        23.6600   27.4100   58.6200 ca       150 PET     -0.163574
   3281 CA2        24.1900   26.1000   58.6000 ca       150 PET     -0.108363
   3282 CA3        25.5400   25.9600   58.8100 ca       150 PET     -0.078542
   3283 CA4        24.5300   28.5300   59.0100 ca       150 PET     -0.078542
   3284 CA5        25.8700   28.2600   59.3600 ca       150 PET     -0.108363
   3285 CA6        26.3600   26.9400   59.2200 ca       150 PET     -0.163574
   3286 C2         27.8700   26.5300   59.3200 c        150 PET      0.825469
   3287 C3         30.0300   27.1200   60.1800 c3       150 PET      0.058627
   3288 C4         30.8100   27.6700   61.4300 c3       150 PET      0.058627
   3289 O1         21.9500   28.9800   57.9400 os       150 PET     -0.411922
   3290 O2         21.2800   26.8400   58.1500 o        150 PET     -0.591068
   3291 O3         28.3800   25.7700   58.5500 o        150 PET     -0.591068
   3292 O4         28.6000   27.2600   60.3100 os       150 PET     -0.411922
   3293 HA2        23.5000   25.2900   58.3900 ha       150 PET      0.129090
   3294 HA3        25.9800   24.9700   58.7100 ha       150 PET      0.145907
   3295 HA4        24.0700   29.5100   59.0600 ha       150 PET      0.145907
   3296 HA5        26.4600   29.0900   59.7600 ha       150 PET      0.129090
   3297 H31        30.2700   26.0600   59.9900 h1       150 PET      0.097188
   3298 H32        30.3600   27.6400   59.2800 h1       150 PET      0.097188
   3299 H41        30.5000   27.0400   62.2700 h1       150 PET      0.097188
   3300 H42        31.8600   27.6300   61.1400 h1       150 PET      0.097188
   3301 C1         33.2600   38.0500   60.5000 c        151 PET      0.825469
   3302 CA1        34.7600   37.9400   60.8100 ca       151 PET     -0.163574
   3303 CA2        35.6900   38.8700   60.2400 ca       151 PET     -0.108363
   3304 CA3        37.1300   38.7500   60.4300 ca       151 PET     -0.078542
   3305 CA4        35.2300   36.9500   61.5800 ca       151 PET     -0.078542
   3306 CA5        36.5400   36.8300   61.8100 ca       151 PET     -0.108363
   3307 CA6        37.5600   37.7100   61.2500 ca       151 PET     -0.163574
   3308 C2         39.0300   37.4600   61.4300 c        151 PET      0.825469
   3309 C3         40.8000   36.0700   62.6300 c3       151 PET      0.058627
   3310 C4         40.9500   34.9800   63.7800 c3       151 PET      0.058627
   3311 O1         33.0000   38.9000   59.4500 os       151 PET     -0.411922
   3312 O2         32.4700   37.1900   60.8800 o        151 PET     -0.591068
   3313 O3         39.8400   38.1600   60.8700 o        151 PET     -0.591068
   3314 O4         39.4000   36.4800   62.4300 os       151 PET     -0.411922
   3315 HA2        35.3100   39.6900   59.6300 ha       151 PET      0.129090
   3316 HA3        37.8400   39.4100   59.9500 ha       151 PET      0.145907
   3317 HA4        34.6100   36.1700   62.0300 ha       151 PET      0.145907
   3318 HA5        36.8900   36.0400   62.4700 ha       151 PET      0.129090
   3319 H31        41.0900   35.6000   61.6900 h1       151 PET      0.097188
   3320 H32        41.3500   36.9900   62.8500 h1       151 PET      0.097188
   3321 H41        41.2600   35.3500   64.7600 h1       151 PET      0.097188
   3322 H42        41.7300   34.3300   63.3800 h1       151 PET      0.097188
   3323 C1         38.6400   34.5900   64.5700 c        152 PET      0.825469
   3324 CA1        37.4400   33.7600   64.2900 ca       152 PET     -0.163574
   3325 CA2        37.5700   32.4600   63.7400 ca       152 PET     -0.108363
   3326 CA3        36.4500   31.6700   63.3900 ca       152 PET     -0.078542
   3327 CA4        36.1200   34.3300   64.3400 ca       152 PET     -0.078542
   3328 CA5        35.0300   33.5800   63.9600 ca       152 PET     -0.108363
   3329 CA6        35.1500   32.2500   63.5200 ca       152 PET     -0.163574
   3330 C2         33.9200   31.4000   63.2200 c        152 PET      0.825469
   3331 C3         31.5600   31.4700   63.3100 c3       152 PET      0.058627
   3332 C4         31.3000   31.4600   61.8000 c3       152 PET      0.058627
   3333 O1         39.7500   34.2100   63.8600 os       152 PET     -0.411922
   3334 O2         38.6000   35.5200   65.3100 o        152 PET     -0.591068
   3335 O3         33.9000   30.3700   62.6600 o        152 PET     -0.591068
   3336 O4         32.8000   32.0400   63.5900 os       152 PET     -0.411922
   3337 HA2        38.5500   32.0000   63.6400 ha       152 PET      0.129090
   3338 HA3        36.4500   30.7100   62.8700 ha       152 PET      0.145907
   3339 HA4        36.0400   35.3800   64.6200 ha       152 PET      0.145907
   3340 HA5        34.0300   33.9900   64.0800 ha       152 PET      0.129090
   3341 H31        31.4500   30.4300   63.6400 h1       152 PET      0.097188
   3342 H32        30.7400   32.0000   63.8200 h1       152 PET      0.097188
   3343 H41        31.0200   30.4500   61.4700 h1       152 PET      0.097188
   3344 H42        32.1800   31.6900   61.1900 h1       152 PET      0.097188
   3345 C1         30.5100   33.7600   61.5800 c        153 PET      0.825469
   3346 CA1        29.3500   34.6500   61.2400 ca       153 PET     -0.163574
   3347 CA2        29.4800   35.8600   60.6300 ca       153 PET     -0.108363
   3348 CA3        28.3100   36.5700   60.3300 ca       153 PET     -0.078542
   3349 CA4        28.0000   34.0200   61.3100 ca       153 PET     -0.078542
   3350 CA5        26.9100   34.7200   60.9700 ca       153 PET     -0.108363
   3351 CA6        27.0600   36.0300   60.4700 ca       153 PET     -0.163574
   3352 C2         25.8100   36.7500   60.0000 c        153 PET      0.825469
   3353 C3         25.0000   38.6600   58.8200 c3       153 PET      0.058627
   3354 C4         25.5200   39.9700   58.1700 c3       153 PET      0.058627
   3355 O1         30.2900   32.3900   61.4200 os       153 PET     -0.411922
   3356 O2         31.5600   34.2000   62.0300 o        153 PET     -0.591068
   3357 O3         24.6500   36.3600   60.2700 o        153 PET     -0.591068
   3358 O4         26.0900   37.9000   59.3700 os       153 PET     -0.411922
   3359 HA2        30.4900   36.2300   60.4900 ha       153 PET      0.129090
   3360 HA3        28.3900   37.6000   59.9800 ha       153 PET      0.145907
   3361 HA4        27.9400   32.9700   61.5500 ha       153 PET      0.145907
   3362 HA5        25.9200   34.2800   60.9200 ha       153 PET      0.129090
   3363 H31        24.4000   38.0500   58.1400 h1       153 PET      0.097188
   3364 H32        24.3400   38.9100   59.6700 h1       153 PET      0.097188
   3365 H41        25.6500   40.7300   58.9500 h1       153 PET      0.097188
   3366 H42        24.7700   40.3500   57.4800 h1       153 PET      0.097188
   3367 C1         27.3600   40.7000   56.8300 c        154 PET      0.825469
   3368 CA1        28.7400   40.4200   56.2400 ca       154 PET     -0.163574
   3369 CA2        29.5300   39.4200   56.8400 ca       154 PET     -0.108363
   3370 CA3        30.8300   39.1400   56.3900 ca       154 PET     -0.078542
   3371 CA4        29.2800   41.1300   55.1300 ca       154 PET     -0.078542
   3372 CA5        30.5200   40.7500   54.6800 ca       154 PET     -0.108363
   3373 CA6        31.3900   39.9000   55.3700 ca       154 PET     -0.163574
   3374 C2         32.7600   39.5200   54.7800 c        154 PET      0.825469
   3375 C3         35.1200   38.9000   55.3600 c3       154 PET      0.058627
   3376 C4         35.6700   38.4200   56.7600 c3       154 PET      0.058627
   3377 O1         26.7700   39.6500   57.5000 os       154 PET     -0.411922
   3378 O2         26.8300   41.8000   56.7100 o        154 PET     -0.591068
   3379 O3         33.1000   39.6800   53.6000 o        154 PET     -0.591068
   3380 O4         33.6900   39.1300   55.6400 os       154 PET     -0.411922
   3381 HA2        29.1800   38.9500   57.7500 ha       154 PET      0.129090
   3382 HA3        31.4400   38.4100   56.9000 ha       154 PET      0.145907
   3383 HA4        28.6600   41.9100   54.7000 ha       154 PET      0.145907
   3384 HA5        30.9000   41.3000   53.8200 ha       154 PET      0.129090
   3385 H31        35.2600   38.0700   54.6500 h1       154 PET      0.097188
   3386 H32        35.5900   39.7900   54.9200 h1       154 PET      0.097188
   3387 H41        36.2000   37.4600   56.7300 h1       154 PET      0.097188
   3388 H42        34.8600   38.1700   57.4600 h1       154 PET      0.097188
   3389 C1         37.6900   39.6400   56.6800 c        155 PET      0.825469
   3390 CA1        38.4000   40.8600   57.2100 ca       155 PET     -0.163574
   3391 CA2        39.5600   41.3200   56.5700 ca       155 PET     -0.108363
   3392 CA3        40.2000   42.5000   57.0600 ca       155 PET     -0.078542
   3393 CA4        37.8300   41.6500   58.2400 ca       155 PET     -0.078542
   3394 CA5        38.4500   42.8100   58.6800 ca       155 PET     -0.108363
   3395 CA6        39.6600   43.1900   58.1400 ca       155 PET     -0.163574
   3396 C2         40.3500   44.4200   58.5900 c        155 PET      0.825469
   3397 C3         41.7000   46.3500   57.7400 c3       155 PET      0.058627
   3398 C4         43.1900   45.8400   57.7100 c3       155 PET      0.058627
   3399 O1         36.4700   39.4500   57.2200 os       155 PET     -0.411922
   3400 O2         38.2200   38.8900   55.8100 o        155 PET     -0.591068
   3401 O3         40.5500   44.6000   59.7900 o        155 PET     -0.591068
   3402 O4         40.7700   45.2700   57.5900 os       155 PET     -0.411922
   3403 HA2        39.9600   40.8500   55.6700 ha       155 PET      0.129090
   3404 HA3        41.0700   42.8900   56.5400 ha       155 PET      0.145907
   3405 HA4        36.8500   41.4400   58.6600 ha       155 PET      0.145907
   3406 HA5        37.9600   43.4800   59.3800 ha       155 PET      0.129090
   3407 H31        41.5500   47.1400   57.0000 h1       155 PET      0.097188
   3408 H32        41.5400   46.9400   58.6500 h1       155 PET      0.097188
   3409 H41        43.8800   46.6600   57.9500 h1       155 PET      0.097188
   3410 H42        43.4200   45.6200   56.6700 h1       155 PET      0.097188
   3411 C1         43.5100   44.7100   59.8600 c        156 PET      0.825469
   3412 CA1        43.5500   43.4200   60.5100 ca       156 PET     -0.163574
   3413 CA2        44.3900   43.1400   61.6200 ca       156 PET     -0.108363
   3414 CA3        44.5800   41.8500   62.1200 ca       156 PET     -0.078542
   3415 CA4        42.9700   42.3200   59.8700 ca       156 PET     -0.078542
   3416 CA5        43.0800   41.0500   60.4100 ca       156 PET     -0.108363
   3417 CA6        43.8600   40.7400   61.5400 ca       156 PET     -0.163574
   3418 C2         44.1600   39.2500   61.8000 c        156 PET      0.825469
   3419 C3         46.2800   38.1200   61.9500 c3       156 PET      0.058627
   3420 C4         47.6600   38.8500   61.6800 c3       156 PET      0.058627
   3421 O1         43.3500   44.6700   58.4900 os       156 PET     -0.411922
   3422 O2         43.6000   45.8000   60.3800 o        156 PET     -0.591068
   3423 O3         43.5100   38.3200   61.3500 o        156 PET     -0.591068
   3424 O4         45.3600   39.1300   62.4200 os       156 PET     -0.411922
   3425 HA2        45.0600   43.9000   62.0100 ha       156 PET      0.129090
   3426 HA3        45.2700   41.7000   62.9500 ha       156 PET      0.145907
   3427 HA4        42.3000   42.4600   59.0300 ha       156 PET      0.145907
   3428 HA5        42.5800   40.2100   59.9400 ha       156 PET      0.129090
   3429 H31        46.3400   37.2800   62.6500 h1       156 PET      0.097188
   3430 H32        45.9700   37.6900   60.9900 h1       156 PET      0.097188
   3431 H41        48.1600   38.1800   60.9600 h1       156 PET      0.097188
   3432 H42        48.2300   38.8600   62.6200 h1       156 PET      0.097188
   3433 C1         48.6200   40.9300   60.9000 c        157 PET      0.825469
   3434 CA1        48.4900   42.2200   59.9900 ca       157 PET     -0.163574
   3435 CA2        49.5500   43.0100   59.5600 ca       157 PET     -0.108363
   3436 CA3        49.2500   44.1200   58.7900 ca       157 PET     -0.078542
   3437 CA4        47.1400   42.5500   59.7200 ca       157 PET     -0.078542
   3438 CA5        46.8200   43.6800   58.9600 ca       157 PET     -0.108363
   3439 CA6        47.8700   44.4900   58.4500 ca       157 PET     -0.163574
   3440 C2         47.5800   45.7500   57.7400 c        157 PET      0.825469
   3441 C3         48.5200   47.6100   56.4300 c3       157 PET      0.058627
   3442 C4         48.6400   48.6700   57.6000 c3       157 PET      0.058627
   3443 O1         47.5100   40.1800   61.0900 os       157 PET     -0.411922
   3444 O2         49.7300   40.5800   61.2500 o        157 PET     -0.591068
   3445 O3         46.5600   46.4000   57.9500 o        157 PET     -0.591068
   3446 O4         48.6100   46.2600   56.9900 os       157 PET     -0.411922
   3447 HA2        50.5500   42.7300   59.8900 ha       157 PET      0.129090
   3448 HA3        50.0400   44.8400   58.5600 ha       157 PET      0.145907
   3449 HA4        46.3600   41.9700   60.2100 ha       157 PET      0.145907
   3450 HA5        45.7800   43.9400   58.7500 ha       157 PET      0.129090
   3451 H31        49.2800   47.7900   55.6600 h1       157 PET      0.097188
   3452 H32        47.5400   47.7500   55.9600 h1       157 PET      0.097188
   3453 H41        48.0500   48.3400   58.4700 h1       157 PET      0.097188
   3454 H42        48.1400   49.5600   57.2100 h1       157 PET      0.097188
   3455 C1         50.6500   48.0500   58.6900 c        158 PET      0.825469
   3456 CA1        52.1100   47.9200   58.6200 ca       158 PET     -0.163574
   3457 CA2        52.8100   46.8100   59.0700 ca       158 PET     -0.108363
   3458 CA3        54.1900   46.7800   58.9900 ca       158 PET     -0.078542
   3459 CA4        52.8200   49.0300   58.1500 ca       158 PET     -0.078542
   3460 CA5        54.1900   49.0700   58.1600 ca       158 PET     -0.108363
   3461 CA6        54.8800   47.9700   58.5900 ca       158 PET     -0.163574
   3462 C2         56.3400   48.0200   58.5000 c        158 PET      0.825469
   3463 C3         58.5100   46.9900   59.2500 c3       158 PET      0.058627
   3464 C4         59.2200   48.1500   59.8500 c3       158 PET      0.058627
   3465 O1         50.0400   48.9600   57.9200 os       158 PET     -0.411922
   3466 O2         50.0500   47.2800   59.4300 o        158 PET     -0.591068
   3467 O3         56.9100   48.7600   57.7000 o        158 PET     -0.591068
   3468 O4         57.0400   47.0500   59.2700 os       158 PET     -0.411922
   3469 HA2        52.2400   45.9400   59.4000 ha       158 PET      0.129090
   3470 HA3        54.8300   45.9400   59.2600 ha       158 PET      0.145907
   3471 HA4        52.2800   49.9000   57.7900 ha       158 PET      0.145907
   3472 HA5        54.7700   49.9400   57.8900 ha       158 PET      0.129090
   3473 H31        58.7900   45.9800   59.5600 h1       158 PET      0.097188
   3474 H32        58.8600   47.0100   58.2100 h1       158 PET      0.097188
   3475 H41        59.2300   47.9300   60.9200 h1       158 PET      0.097188
   3476 H42        58.6100   49.0600   59.7500 h1       158 PET      0.097188
   3477 C1         61.4800   47.3600   59.1800 c        159 PET      0.825469
   3478 CA1        62.9100   47.8800   58.8700 ca       159 PET     -0.163574
   3479 CA2        64.0200   46.9900   58.6500 ca       159 PET     -0.108363
   3480 CA3        65.3100   47.4000   58.4400 ca       159 PET     -0.078542
   3481 CA4        63.1800   49.2400   58.8100 ca       159 PET     -0.078542
   3482 CA5        64.5100   49.6700   58.6200 ca       159 PET     -0.108363
   3483 CA6        65.5900   48.7600   58.4800 ca       159 PET     -0.163574
   3484 C2         67.0300   49.2000   58.3200 c        159 PET      0.825469
   3485 C3         69.3400   48.6700   57.7400 c3       159 PET      0.058627
   3486 C4         70.0700   47.7900   56.7100 c3       159 PET      0.058627
   3487 O1         60.5600   48.3600   59.3000 os       159 PET     -0.411922
   3488 O2         61.2200   46.1600   59.3200 o        159 PET     -0.591068
   3489 O3         67.3600   50.3200   58.6400 o        159 PET     -0.591068
   3490 O4         67.9100   48.2600   57.8500 os       159 PET     -0.411922
   3491 HA2        63.8500   45.9200   58.6400 ha       159 PET      0.129090
   3492 HA3        66.1000   46.6800   58.2900 ha       159 PET      0.145907
   3493 HA4        62.3800   49.9900   58.8200 ha       159 PET      0.145907
   3494 HA5        64.7000   50.7300   58.6600 ha       159 PET      0.129090
   3495 H31        69.4600   49.7100   57.3900 h1       159 PET      0.097188
   3496 H32        69.8100   48.5100   58.7200 h1       159 PET      0.097188
   3497 H41        69.8400   48.2000   55.7200 h1       159 PET      0.097188
   3498 H42        69.6300   46.7800   56.7400 h1       159 PET      0.097188
   3499 C1         72.2600   48.6600   56.5900 c        160 PET      0.825469
   3500 CA1        73.7400   48.3100   56.7700 ca       160 PET     -0.163574
   3501 CA2        74.2000   46.9800   57.0000 ca       160 PET     -0.108363
   3502 CA3        75.6000   46.8300   57.2500 ca       160 PET     -0.078542
   3503 CA4        74.6500   49.3600   56.7100 ca       160 PET     -0.078542
   3504 CA5        76.0000   49.2300   57.0000 ca       160 PET     -0.108363
   3505 CA6        76.4500   47.9300   57.2800 ca       160 PET     -0.163574
   3506 C2         77.8500   47.5700   57.7100 c        160 PET      0.825469
   3507 C3         80.1600   48.1600   57.6600 c3       160 PET      0.058627
   3508 C4         80.4200   49.1700   58.6500 c3       160 PET      0.058627
   3509 O1         71.4500   47.6400   57.0600 os       160 PET     -0.411922
   3510 O2         71.8900   49.6500   56.0300 o        160 PET     -0.591068
   3511 O3         78.0700   46.6100   58.4300 o        160 PET     -0.591068
   3512 O4         78.7500   48.3600   57.2100 os       160 PET     -0.411922
   3513 HA2        73.6000   46.1100   56.7900 ha       160 PET      0.129090
   3514 HA3        76.0400   45.8400   57.2600 ha       160 PET      0.145907
   3515 HA4        74.3900   50.3900   56.4600 ha       160 PET      0.145907
   3516 HA5        76.7600   50.0000   57.0200 ha       160 PET      0.129090
   3517 H31        80.3500   47.1400   58.0100 h1       160 PET      0.097188
   3518 H32        80.8200   48.3000   56.7900 h1       160 PET      0.097188
   3519 H41        80.4300   48.7600   59.6700 h1       160 PET      0.097188
   3520 H42        79.6000   49.8900   58.5700 h1       160 PET      0.097188
   3521 C1          2.2600   50.4900   59.5200 c        161 PET      0.825469
   3522 CA1         3.7600   50.7400   59.4900 ca       161 PET     -0.163574
   3523 CA2         4.6000   50.1900   58.5500 ca       161 PET     -0.108363
   3524 CA3         5.9400   50.6100   58.4400 ca       161 PET     -0.078542
   3525 CA4         4.3700   51.5500   60.4800 ca       161 PET     -0.078542
   3526 CA5         5.6900   51.9000   60.4200 ca       161 PET     -0.108363
   3527 CA6         6.5200   51.5000   59.3300 ca       161 PET     -0.163574
   3528 C2          8.0100   51.8300   59.0900 c        161 PET      0.825469
   3529 C3         10.0100   52.6800   60.1900 c3       161 PET      0.058627
   3530 C4         10.5500   51.4000   60.7700 c3       161 PET      0.058627
   3531 O1          1.7000   49.8100   58.4200 os       161 PET     -0.411922
   3532 O2          1.5700   50.8900   60.4400 o        161 PET     -0.591068
   3533 O3          8.6500   51.2500   58.3000 o        161 PET     -0.591068
   3534 O4          8.6200   52.4900   60.1000 os       161 PET     -0.411922
   3535 HA2         4.2000   49.5000   57.8100 ha       161 PET      0.129090
   3536 HA3         6.5200   50.1600   57.6500 ha       161 PET      0.145907
   3537 HA4         3.7700   52.0200   61.2600 ha       161 PET      0.145907
   3538 HA5         6.1100   52.4600   61.2500 ha       161 PET      0.129090
   3539 H31        10.5200   53.0000   59.2700 h1       161 PET      0.097188
   3540 H32        10.1100   53.4900   60.9200 h1       161 PET      0.097188
   3541 H41        10.5100   50.6600   59.9600 h1       161 PET      0.097188
   3542 H42         9.8900   51.0800   61.5900 h1       161 PET      0.097188
   3543 C1         12.6300   50.5200   61.5800 c        162 PET      0.825469
   3544 CA1        14.1400   50.6600   61.7200 ca       162 PET     -0.163574
   3545 CA2        14.6000   51.9300   61.8700 ca       162 PET     -0.108363
   3546 CA3        15.9700   52.1400   61.9600 ca       162 PET     -0.078542
   3547 CA4        15.0300   49.5800   61.5400 ca       162 PET     -0.078542
   3548 CA5        16.4100   49.8000   61.5300 ca       162 PET     -0.108363
   3549 CA6        16.9100   51.0800   61.7300 ca       162 PET     -0.163574
   3550 C2         18.4300   51.3700   61.6100 c        162 PET      0.825469
   3551 C3         20.1400   52.9800   62.3300 c3       162 PET      0.058627
   3552 C4         21.0400   53.0700   61.0200 c3       162 PET      0.058627
   3553 O1         12.0000   51.6300   61.1800 os       162 PET     -0.411922
   3554 O2         12.0500   49.4900   61.8100 o        162 PET     -0.591068
   3555 O3         19.1700   50.4800   61.1600 o        162 PET     -0.591068
   3556 O4         18.7500   52.6800   61.9000 os       162 PET     -0.411922
   3557 HA2        13.8900   52.7300   62.0500 ha       162 PET      0.129090
   3558 HA3        16.3400   53.1200   62.2200 ha       162 PET      0.145907
   3559 HA4        14.6900   48.5800   61.2800 ha       162 PET      0.145907
   3560 HA5        17.1100   49.0300   61.2200 ha       162 PET      0.129090
   3561 H31        20.2800   53.9400   62.8500 h1       162 PET      0.097188
   3562 H32        20.4800   52.1900   63.0100 h1       162 PET      0.097188
   3563 H41        20.5700   53.9000   60.4800 h1       162 PET      0.097188
   3564 H42        21.0200   52.1600   60.4000 h1       162 PET      0.097188
   3565 C1         22.7300   54.6800   61.5200 c        163 PET      0.825469
   3566 CA1        24.1900   55.0400   61.2800 ca       163 PET     -0.163574
   3567 CA2        25.2600   54.1000   61.5300 ca       163 PET     -0.108363
   3568 CA3        26.5800   54.4200   61.3400 ca       163 PET     -0.078542
   3569 CA4        24.6000   56.3400   61.0300 ca       163 PET     -0.078542
   3570 CA5        25.9600   56.6800   60.8500 ca       163 PET     -0.108363
   3571 CA6        26.9900   55.6700   60.9600 ca       163 PET     -0.163574
   3572 C2         28.4100   56.0300   60.5800 c        163 PET      0.825469
   3573 C3         30.7600   55.1000   60.4600 c3       163 PET      0.058627
   3574 C4         31.0000   54.6500   58.9300 c3       163 PET      0.058627
   3575 O1         22.4100   53.3700   61.3100 os       163 PET     -0.411922
   3576 O2         21.8700   55.5100   61.7800 o        163 PET     -0.591068
   3577 O3         28.6900   57.1500   60.2200 o        163 PET     -0.591068
   3578 O4         29.3400   55.0000   60.8100 os       163 PET     -0.411922
   3579 HA2        25.0900   53.0700   61.8200 ha       163 PET      0.129090
   3580 HA3        27.3300   53.6300   61.3000 ha       163 PET      0.145907
   3581 HA4        23.9200   57.1800   60.8800 ha       163 PET      0.145907
   3582 HA5        26.2000   57.7000   60.5700 ha       163 PET      0.129090
   3583 H31        31.0300   56.1600   60.5700 h1       163 PET      0.097188
   3584 H32        31.3900   54.4500   61.0800 h1       163 PET      0.097188
   3585 H41        30.8300   55.5400   58.3100 h1       163 PET      0.097188
   3586 H42        30.2400   53.9100   58.6600 h1       163 PET      0.097188
   3587 C1         32.6400   53.8000   57.4400 c        164 PET      0.825469
   3588 CA1        33.8800   52.9600   57.2100 ca       164 PET     -0.163574
   3589 CA2        34.2300   51.9500   58.0700 ca       164 PET     -0.108363
   3590 CA3        35.3000   51.1300   57.7800 ca       164 PET     -0.078542
   3591 CA4        34.7100   53.2600   56.1000 ca       164 PET     -0.078542
   3592 CA5        35.8300   52.5100   55.8300 ca       164 PET     -0.108363
   3593 CA6        36.1600   51.4300   56.6600 ca       164 PET     -0.163574
   3594 C2         37.3600   50.5700   56.4400 c        164 PET      0.825469
   3595 C3         39.5700   50.4400   55.4800 c3       164 PET      0.058627
   3596 C4         40.3100   50.4200   56.7600 c3       164 PET      0.058627
   3597 O1         32.3300   54.0500   58.7300 os       164 PET     -0.411922
   3598 O2         32.0800   54.3200   56.4800 o        164 PET     -0.591068
   3599 O3         37.5600   49.5200   57.0500 o        164 PET     -0.591068
   3600 O4         38.3400   51.0900   55.6400 os       164 PET     -0.411922
   3601 HA2        33.6500   51.7700   58.9700 ha       164 PET      0.129090
   3602 HA3        35.4600   50.2100   58.3400 ha       164 PET      0.145907
   3603 HA4        34.4300   54.0900   55.4500 ha       164 PET      0.145907
   3604 HA5        36.2800   52.7300   54.8700 ha       164 PET      0.129090
   3605 H31        39.3900   49.4500   55.0500 h1       164 PET      0.097188
   3606 H32        40.1900   50.9900   54.7500 h1       164 PET      0.097188
   3607 H41        40.2900   49.4100   57.1900 h1       164 PET      0.097188
   3608 H42        39.8100   51.0400   57.5100 h1       164 PET      0.097188
   3609 C1         42.5200   49.9400   55.9900 c        165 PET      0.825469
   3610 CA1        43.9300   50.3700   56.0300 ca       165 PET     -0.163574
   3611 CA2        44.9200   49.5500   55.4500 ca       165 PET     -0.108363
   3612 CA3        46.2100   49.9700   55.2300 ca       165 PET     -0.078542
   3613 CA4        44.3900   51.6000   56.5200 ca       165 PET     -0.078542
   3614 CA5        45.7600   52.0700   56.3300 ca       165 PET     -0.108363
   3615 CA6        46.6900   51.2200   55.6500 ca       165 PET     -0.163574
   3616 C2         48.1100   51.6200   55.4200 c        165 PET      0.825469
   3617 C3         49.8500   53.1700   56.0500 c3       165 PET      0.058627
   3618 C4         50.8300   52.1300   56.5200 c3       165 PET      0.058627
   3619 O1         41.6600   50.8400   56.5500 os       165 PET     -0.411922
   3620 O2         42.2000   48.8400   55.5000 o        165 PET     -0.591068
   3621 O3         48.8600   51.0200   54.6500 o        165 PET     -0.591068
   3622 O4         48.4600   52.6800   56.1200 os       165 PET     -0.411922
   3623 HA2        44.7000   48.5800   55.0000 ha       165 PET      0.129090
   3624 HA3        46.8000   49.3500   54.5600 ha       165 PET      0.145907
   3625 HA4        43.6600   52.2800   56.9500 ha       165 PET      0.145907
   3626 HA5        46.1000   52.9600   56.8700 ha       165 PET      0.129090
   3627 H31        50.1200   53.3900   55.0000 h1       165 PET      0.097188
   3628 H32        49.9700   54.1200   56.6000 h1       165 PET      0.097188
   3629 H41        50.8400   51.2800   55.8300 h1       165 PET      0.097188
   3630 H42        50.4700   51.7200   57.4700 h1       165 PET      0.097188
   3631 C1         53.2800   52.1200   56.1200 c        166 PET      0.825469
   3632 CA1        54.6100   52.8700   56.3500 ca       166 PET     -0.163574
   3633 CA2        55.8800   52.3300   56.0300 ca       166 PET     -0.108363
   3634 CA3        57.1100   52.8500   56.4900 ca       166 PET     -0.078542
   3635 CA4        54.6400   54.0600   57.2000 ca       166 PET     -0.078542
   3636 CA5        55.8600   54.6900   57.5700 ca       166 PET     -0.108363
   3637 CA6        57.1200   54.0300   57.2700 ca       166 PET     -0.163574
   3638 C2         58.4300   54.6400   57.7200 c        166 PET      0.825469
   3639 C3         60.7500   54.2400   58.2200 c3       166 PET      0.058627
   3640 C4         61.6700   53.1200   58.8200 c3       166 PET      0.058627
   3641 O1         52.1600   52.8000   56.5100 os       166 PET     -0.411922
   3642 O2         53.2400   50.9700   55.7100 o        166 PET     -0.591068
   3643 O3         58.5800   55.8000   58.1500 o        166 PET     -0.591068
   3644 O4         59.4700   53.7400   57.6500 os       166 PET     -0.411922
   3645 HA2        55.9500   51.3700   55.5400 ha       166 PET      0.129090
   3646 HA3        58.0100   52.2900   56.2400 ha       166 PET      0.145907
   3647 HA4        53.7400   54.4300   57.6700 ha       166 PET      0.145907
   3648 HA5        55.8700   55.5300   58.2600 ha       166 PET      0.129090
   3649 H31        61.3000   54.8300   57.4800 h1       166 PET      0.097188
   3650 H32        60.5400   54.9800   59.0000 h1       166 PET      0.097188
   3651 H41        61.4600   52.3200   58.1000 h1       166 PET      0.097188
   3652 H42        61.3800   52.8100   59.8200 h1       166 PET      0.097188
   3653 C1         63.4800   54.5700   59.6200 c        167 PET      0.825469
   3654 CA1        65.0000   54.8000   59.6500 ca       167 PET     -0.163574
   3655 CA2        65.8800   53.9100   59.0600 ca       167 PET     -0.108363
   3656 CA3        67.2700   54.1800   58.9800 ca       167 PET     -0.078542
   3657 CA4        65.4400   55.9800   60.2500 ca       167 PET     -0.078542
   3658 CA5        66.8300   56.3000   60.2200 ca       167 PET     -0.108363
   3659 CA6        67.7800   55.4400   59.5900 ca       167 PET     -0.163574
   3660 C2         69.2300   55.8300   59.4700 c        167 PET      0.825469
   3661 C3         71.5300   55.1400   58.7500 c3       167 PET      0.058627
   3662 C4         72.2500   53.8200   58.6900 c3       167 PET      0.058627
   3663 O1         63.0700   53.5100   58.8400 os       167 PET     -0.411922
   3664 O2         62.7400   55.2300   60.3300 o        167 PET     -0.591068
   3665 O3         69.6400   56.9600   59.7800 o        167 PET     -0.591068
   3666 O4         70.0600   54.8700   58.8500 os       167 PET     -0.411922
   3667 HA2        65.6300   52.9400   58.6300 ha       167 PET      0.129090
   3668 HA3        67.9200   53.4800   58.4700 ha       167 PET      0.145907
   3669 HA4        64.6800   56.6400   60.6700 ha       167 PET      0.145907
   3670 HA5        67.1000   57.2600   60.6300 ha       167 PET      0.129090
   3671 H31        71.7900   55.7100   57.8400 h1       167 PET      0.097188
   3672 H32        71.8500   55.7700   59.5900 h1       167 PET      0.097188
   3673 H41        72.3600   53.5800   57.6200 h1       167 PET      0.097188
   3674 H42        71.6900   53.0800   59.2800 h1       167 PET      0.097188
   3675 C1         74.5300   53.0400   59.0200 c        168 PET      0.825469
   3676 CA1        75.9700   53.4700   59.1900 ca       168 PET     -0.163574
   3677 CA2        76.2700   54.8300   59.3800 ca       168 PET     -0.108363
   3678 CA3        77.6100   55.2200   59.3400 ca       168 PET     -0.078542
   3679 CA4        76.9400   52.4700   59.2800 ca       168 PET     -0.078542
   3680 CA5        78.2600   52.8500   59.2700 ca       168 PET     -0.108363
   3681 CA6        78.6400   54.2500   59.2000 ca       168 PET     -0.163574
   3682 C2         80.0100   54.6400   58.9100 c        168 PET      0.825469
   3683 C3         82.3100   53.9400   58.5600 c3       168 PET      0.058627
   3684 C4         82.5300   54.7100   57.1900 c3       168 PET      0.058627
   3685 O1         73.6000   54.0600   59.2000 os       168 PET     -0.411922
   3686 O2         74.1900   51.9200   58.5900 o        168 PET     -0.591068
   3687 O3         80.3500   55.7800   58.9900 o        168 PET     -0.591068
   3688 O4         80.8700   53.6400   58.6900 os       168 PET     -0.411922
   3689 HA2        75.5200   55.6200   59.4200 ha       168 PET      0.129090
   3690 HA3        77.8900   56.2700   59.3900 ha       168 PET      0.145907
   3691 HA4        76.6600   51.4300   59.3600 ha       168 PET      0.145907
   3692 HA5        79.0200   52.0900   59.3900 ha       168 PET      0.129090
   3693 H31        82.5600   54.5900   59.4000 h1       168 PET      0.097188
   3694 H32        82.9300   53.0400   58.5400 h1       168 PET      0.097188
   3695 H41        82.4100   55.7800   57.4100 h1       168 PET      0.097188
   3696 H42        81.8900   54.3500   56.3700 h1       168 PET      0.097188
   3697 C1          4.8700   55.1300   57.7000 c        169 PET      0.825469
   3698 CA1         6.2400   54.8100   57.5100 ca       169 PET     -0.163574
   3699 CA2         7.2200   55.2400   58.3400 ca       169 PET     -0.108363
   3700 CA3         8.5400   54.9700   58.0000 ca       169 PET     -0.078542
   3701 CA4         6.6700   54.3100   56.2200 ca       169 PET     -0.078542
   3702 CA5         8.0300   54.0800   55.9000 ca       169 PET     -0.108363
   3703 CA6         8.9800   54.4200   56.8100 ca       169 PET     -0.163574
   3704 C2         10.4100   54.4900   56.4000 c        169 PET      0.825469
   3705 C3         12.3900   55.7000   56.1900 c3       169 PET      0.058627
   3706 C4         12.9500   57.1200   56.5500 c3       169 PET      0.058627
   3707 O1          3.9300   54.4700   56.8900 os       169 PET     -0.411922
   3708 O2          4.4900   55.9000   58.5800 o        169 PET     -0.591068
   3709 O3         10.8800   53.6100   55.7500 o        169 PET     -0.591068
   3710 O4         11.0200   55.6900   56.5900 os       169 PET     -0.411922
   3711 HA2         7.0200   55.4900   59.3800 ha       169 PET      0.129090
   3712 HA3         9.2900   55.5000   58.5900 ha       169 PET      0.145907
   3713 HA4         5.8500   54.3200   55.5100 ha       169 PET      0.145907
   3714 HA5         8.4300   53.7900   54.9300 ha       169 PET      0.129090
   3715 H31        12.9100   54.8800   56.6900 h1       169 PET      0.097188
   3716 H32        12.4900   55.4500   55.1300 h1       169 PET      0.097188
   3717 H41        12.2600   57.5900   57.2700 h1       169 PET      0.097188
   3718 H42        12.9100   57.7700   55.6700 h1       169 PET      0.097188
   3719 C1         14.9300   57.8700   57.6900 c        170 PET      0.825469
   3720 CA1        16.4100   57.4800   57.8500 ca       170 PET     -0.163574
   3721 CA2        16.8300   56.1000   58.0100 ca       170 PET     -0.108363
   3722 CA3        18.1700   55.7700   58.2100 ca       170 PET     -0.078542
   3723 CA4        17.4300   58.4700   57.8200 ca       170 PET     -0.078542
   3724 CA5        18.8400   58.1400   57.8300 ca       170 PET     -0.108363
   3725 CA6        19.2000   56.7400   58.0300 ca       170 PET     -0.163574
   3726 C2         20.6200   56.2500   58.1300 c        170 PET      0.825469
   3727 C3         22.9400   56.9400   57.9600 c3       170 PET      0.058627
   3728 C4         23.1500   56.9400   56.4000 c3       170 PET      0.058627
   3729 O1         14.2500   56.8500   57.1500 os       170 PET     -0.411922
   3730 O2         14.3900   58.9200   57.9700 o        170 PET     -0.591068
   3731 O3         20.9000   55.0900   57.9700 o        170 PET     -0.591068
   3732 O4         21.5200   57.2800   58.1700 os       170 PET     -0.411922
   3733 HA2        16.0900   55.3200   58.1400 ha       170 PET      0.129090
   3734 HA3        18.4600   54.7200   58.2400 ha       170 PET      0.145907
   3735 HA4        17.1700   59.5200   57.8200 ha       170 PET      0.145907
   3736 HA5        19.6700   58.8500   57.7900 ha       170 PET      0.129090
   3737 H31        23.5500   57.7000   58.4600 h1       170 PET      0.097188
   3738 H32        23.2000   55.9600   58.3900 h1       170 PET      0.097188
   3739 H41        22.1600   56.7200   55.9900 h1       170 PET      0.097188
   3740 H42        23.7400   56.0500   56.1400 h1       170 PET      0.097188
   3741 C1         22.9200   59.4100   56.0200 c        171 PET      0.825469
   3742 CA1        23.6200   60.7300   55.7500 ca       171 PET     -0.163574
   3743 CA2        22.8900   61.9300   55.8700 ca       171 PET     -0.108363
   3744 CA3        23.4600   63.1800   55.6800 ca       171 PET     -0.078542
   3745 CA4        24.9800   60.8000   55.3300 ca       171 PET     -0.078542
   3746 CA5        25.5600   62.0700   55.1400 ca       171 PET     -0.108363
   3747 CA6        24.8100   63.2300   55.2800 ca       171 PET     -0.163574
   3748 C2         25.5400   64.5300   54.9600 c        171 PET      0.825469
   3749 C3         25.8800   66.8100   55.8800 c3       171 PET      0.058627
   3750 C4         24.9000   67.9400   56.2100 c3       171 PET      0.058627
   3751 O1         23.6800   58.2700   55.9600 os       171 PET     -0.411922
   3752 O2         21.7100   59.3800   56.1100 o        171 PET     -0.591068
   3753 O3         26.3100   64.6200   54.0200 o        171 PET     -0.591068
   3754 O4         25.2900   65.5300   55.9100 os       171 PET     -0.411922
   3755 HA2        21.8800   61.9800   56.2700 ha       171 PET      0.129090
   3756 HA3        22.9100   64.1000   55.8200 ha       171 PET      0.145907
   3757 HA4        25.6700   59.9700   55.3400 ha       171 PET      0.145907
   3758 HA5        26.5800   62.1400   54.7700 ha       171 PET      0.129090
   3759 H31        26.7900   66.8800   56.5000 h1       171 PET      0.097188
   3760 H32        26.2600   67.0600   54.8800 h1       171 PET      0.097188
   3761 H41        24.3100   67.7400   57.1100 h1       171 PET      0.097188
   3762 H42        24.2200   68.0800   55.3600 h1       171 PET      0.097188
   3763 C1         25.1800   70.3300   56.0900 c        172 PET      0.825469
   3764 CA1        26.1200   71.3700   56.6400 ca       172 PET     -0.163574
   3765 CA2        25.7700   72.6700   56.6000 ca       172 PET     -0.108363
   3766 CA3        26.5600   73.7100   57.0800 ca       172 PET     -0.078542
   3767 CA4        27.4700   71.1000   57.0500 ca       172 PET     -0.078542
   3768 CA5        28.2500   72.1200   57.6000 ca       172 PET     -0.108363
   3769 CA6        27.7800   73.4400   57.6700 ca       172 PET     -0.163574
   3770 C2         28.6500   74.5700   58.1500 c        172 PET      0.825469
   3771 C3         30.9500   75.2900   58.0100 c3       172 PET      0.058627
   3772 C4         30.7600   75.7500   56.5000 c3       172 PET      0.058627
   3773 O1         25.6600   69.1200   56.4000 os       172 PET     -0.411922
   3774 O2         24.2100   70.5800   55.3900 o        172 PET     -0.591068
   3775 O3         28.2400   75.7300   58.2200 o        172 PET     -0.591068
   3776 O4         29.9400   74.2400   58.2900 os       172 PET     -0.411922
   3777 HA2        24.7700   72.9100   56.2500 ha       172 PET      0.129090
   3778 HA3        26.1700   74.7100   56.9200 ha       172 PET      0.145907
   3779 HA4        27.9000   70.1000   57.0600 ha       172 PET      0.145907
   3780 HA5        29.1900   71.8700   58.0800 ha       172 PET      0.129090
   3781 H31        30.7600   76.2000   58.5900 h1       172 PET      0.097188
   3782 H32        31.9700   74.9400   58.2100 h1       172 PET      0.097188
   3783 H41        31.6700   76.3100   56.2700 h1       172 PET      0.097188
   3784 H42        29.8800   76.4000   56.3500 h1       172 PET      0.097188
   3785 C1         31.8100   73.9300   55.3700 c        173 PET      0.825469
   3786 CA1        31.5800   72.5600   54.7400 ca       173 PET     -0.163574
   3787 CA2        32.6500   71.8500   54.2500 ca       173 PET     -0.108363
   3788 CA3        32.4500   70.8000   53.3700 ca       173 PET     -0.078542
   3789 CA4        30.2900   71.9400   54.7800 ca       173 PET     -0.078542
   3790 CA5        30.1200   70.7300   54.0400 ca       173 PET     -0.108363
   3791 CA6        31.2000   70.2100   53.2600 ca       173 PET     -0.163574
   3792 C2         31.0500   68.9200   52.4700 c        173 PET      0.825469
   3793 C3         32.2300   66.8600   52.0100 c3       173 PET      0.058627
   3794 C4         33.4800   66.0800   52.6000 c3       173 PET      0.058627
   3795 O1         30.6500   74.5600   55.6400 os       173 PET     -0.411922
   3796 O2         32.9300   74.4000   55.6100 o        173 PET     -0.591068
   3797 O3         30.0400   68.5000   51.9300 o        173 PET     -0.591068
   3798 O4         32.1900   68.1600   52.5400 os       173 PET     -0.411922
   3799 HA2        33.6600   72.2500   54.3000 ha       173 PET      0.129090
   3800 HA3        33.2600   70.3500   52.8100 ha       173 PET      0.145907
   3801 HA4        29.5100   72.4200   55.3600 ha       173 PET      0.145907
   3802 HA5        29.2500   70.1000   53.9400 ha       173 PET      0.129090
   3803 H31        31.3100   66.3400   52.3100 h1       173 PET      0.097188
   3804 H32        32.3900   66.8400   50.9200 h1       173 PET      0.097188
   3805 H41        33.6700   65.1700   52.0100 h1       173 PET      0.097188
   3806 H42        33.1800   65.6600   53.5600 h1       173 PET      0.097188
   3807 C1         35.8500   66.7700   52.2700 c        174 PET      0.825469
   3808 CA1        36.7800   67.9700   52.3000 ca       174 PET     -0.163574
   3809 CA2        36.2000   69.2200   52.3300 ca       174 PET     -0.108363
   3810 CA3        37.0000   70.3800   52.1900 ca       174 PET     -0.078542
   3811 CA4        38.1500   67.8200   52.1400 ca       174 PET     -0.078542
   3812 CA5        38.9800   68.9700   52.0600 ca       174 PET     -0.108363
   3813 CA6        38.3900   70.2600   52.2200 ca       174 PET     -0.163574
   3814 C2         39.2700   71.4500   52.1000 c        174 PET      0.825469
   3815 C3         41.4100   72.2800   52.2000 c3       174 PET      0.058627
   3816 C4         41.3700   72.9800   53.6300 c3       174 PET      0.058627
   3817 O1         34.5800   67.0000   52.7100 os       174 PET     -0.411922
   3818 O2         36.2000   65.7700   51.7000 o        174 PET     -0.591068
   3819 O3         38.8700   72.5400   51.7700 o        174 PET     -0.591068
   3820 O4         40.5300   71.2100   52.3600 os       174 PET     -0.411922
   3821 HA2        35.1200   69.3200   52.2900 ha       174 PET      0.129090
   3822 HA3        36.5300   71.3500   52.1600 ha       174 PET      0.145907
   3823 HA4        38.6300   66.8600   52.0600 ha       174 PET      0.145907
   3824 HA5        40.0500   68.8100   51.9900 ha       174 PET      0.129090
   3825 H31        42.4200   71.8500   52.0800 h1       174 PET      0.097188
   3826 H32        41.1400   72.9100   51.3500 h1       174 PET      0.097188
   3827 H41        40.5200   72.6000   54.2000 h1       174 PET      0.097188
   3828 H42        41.1800   74.0500   53.5400 h1       174 PET      0.097188
   3829 C1         43.1600   73.4400   55.1600 c        175 PET      0.825469
   3830 CA1        44.6400   73.0500   55.3500 ca       175 PET     -0.163574
   3831 CA2        45.5900   73.7800   56.0400 ca       175 PET     -0.108363
   3832 CA3        46.8500   73.2500   56.3300 ca       175 PET     -0.078542
   3833 CA4        45.0000   71.7500   54.9300 ca       175 PET     -0.078542
   3834 CA5        46.1300   71.0700   55.4100 ca       175 PET     -0.108363
   3835 CA6        47.0400   71.8700   56.0800 ca       175 PET     -0.163574
   3836 C2         48.2400   71.1800   56.5600 c        175 PET      0.825469
   3837 C3         49.5800   69.1200   56.3600 c3       175 PET      0.058627
   3838 C4         49.0700   68.3200   57.5600 c3       175 PET      0.058627
   3839 O1         42.6400   72.6400   54.2600 os       175 PET     -0.411922
   3840 O2         42.5400   74.3700   55.6900 o        175 PET     -0.591068
   3841 O3         49.0100   71.6400   57.4000 o        175 PET     -0.591068
   3842 O4         48.5000   69.9200   55.9300 os       175 PET     -0.411922
   3843 HA2        45.3300   74.7900   56.3500 ha       175 PET      0.129090
   3844 HA3        47.5000   73.8000   57.0000 ha       175 PET      0.145907
   3845 HA4        44.2800   71.1200   54.4100 ha       175 PET      0.145907
   3846 HA5        46.3200   70.0300   55.1500 ha       175 PET      0.129090
   3847 H31        49.8900   68.4700   55.5300 h1       175 PET      0.097188
   3848 H32        50.4500   69.6600   56.7400 h1       175 PET      0.097188
   3849 H41        48.1800   67.8500   57.1100 h1       175 PET      0.097188
   3850 H42        48.6900   68.9100   58.4000 h1       175 PET      0.097188
   3851 C1         49.5800   66.2400   58.7100 c        176 PET      0.825469
   3852 CA1        50.5300   65.1100   58.6500 ca       176 PET     -0.163574
   3853 CA2        50.0800   63.8200   59.0700 ca       176 PET     -0.108363
   3854 CA3        50.9900   62.7400   59.2800 ca       176 PET     -0.078542
   3855 CA4        51.8700   65.2200   58.2800 ca       176 PET     -0.078542
   3856 CA5        52.7400   64.1200   58.2500 ca       176 PET     -0.108363
   3857 CA6        52.2800   62.8700   58.7600 ca       176 PET     -0.163574
   3858 C2         53.1800   61.5700   58.6200 c        176 PET      0.825469
   3859 C3         55.2100   60.7000   57.6300 c3       176 PET      0.058627
   3860 C4         55.7200   60.0400   58.9100 c3       176 PET      0.058627
   3861 O1         50.0000   67.2500   57.9800 os       176 PET     -0.411922
   3862 O2         48.5200   66.2200   59.2900 o        176 PET     -0.591068
   3863 O3         52.8500   60.4200   59.0100 o        176 PET     -0.591068
   3864 O4         54.3900   61.8100   58.0500 os       176 PET     -0.411922
   3865 HA2        49.0200   63.7500   59.2800 ha       176 PET      0.129090
   3866 HA3        50.6000   61.7700   59.5600 ha       176 PET      0.145907
   3867 HA4        52.1400   66.2300   57.9700 ha       176 PET      0.145907
   3868 HA5        53.7600   64.3400   57.9500 ha       176 PET      0.129090
   3869 H31        54.7000   60.0500   56.9100 h1       176 PET      0.097188
   3870 H32        56.0900   61.1700   57.1800 h1       176 PET      0.097188
   3871 H41        55.1200   59.1500   59.1600 h1       176 PET      0.097188
   3872 H42        55.5700   60.7200   59.7500 h1       176 PET      0.097188
   3873 C1         58.1200   60.5800   58.5700 c        177 PET      0.825469
   3874 CA1        59.5300   60.1000   58.3700 ca       177 PET     -0.163574
   3875 CA2        59.9800   58.7000   58.4300 ca       177 PET     -0.108363
   3876 CA3        61.3000   58.4200   58.3800 ca       177 PET     -0.078542
   3877 CA4        60.4700   61.1400   58.2200 ca       177 PET     -0.078542
   3878 CA5        61.8500   60.8300   58.2300 ca       177 PET     -0.108363
   3879 CA6        62.2700   59.4900   58.3200 ca       177 PET     -0.163574
   3880 C2         63.7700   59.2000   58.2800 c        177 PET      0.825469
   3881 C3         65.9700   60.1700   58.0800 c3       177 PET      0.058627
   3882 C4         66.6600   61.5100   58.2700 c3       177 PET      0.058627
   3883 O1         57.1100   59.6100   58.6700 os       177 PET     -0.411922
   3884 O2         57.8600   61.7500   58.7300 o        177 PET     -0.591068
   3885 O3         64.1700   58.0400   58.2700 o        177 PET     -0.591068
   3886 O4         64.6000   60.2800   58.4000 os       177 PET     -0.411922
   3887 HA2        59.2100   57.9500   58.4900 ha       177 PET      0.129090
   3888 HA3        61.6700   57.4000   58.4200 ha       177 PET      0.145907
   3889 HA4        60.2000   62.1900   58.1100 ha       177 PET      0.145907
   3890 HA5        62.5700   61.6200   58.4000 ha       177 PET      0.129090
   3891 H31        66.4900   59.4300   58.7000 h1       177 PET      0.097188
   3892 H32        66.1400   60.0800   57.0000 h1       177 PET      0.097188
   3893 H41        67.4800   61.6200   57.5500 h1       177 PET      0.097188
   3894 H42        67.1700   61.4900   59.2400 h1       177 PET      0.097188
   3895 C1         66.1900   63.9200   58.3000 c        178 PET      0.825469
   3896 CA1        65.1000   65.0000   58.3200 ca       178 PET     -0.163574
   3897 CA2        63.7500   64.6500   58.4200 ca       178 PET     -0.108363
   3898 CA3        62.7300   65.5500   58.0800 ca       178 PET     -0.078542
   3899 CA4        65.4000   66.2800   57.9800 ca       178 PET     -0.078542
   3900 CA5        64.4300   67.1900   57.5800 ca       178 PET     -0.108363
   3901 CA6        63.0700   66.8500   57.6000 ca       178 PET     -0.163574
   3902 C2         61.9900   67.7300   57.0600 c        178 PET      0.825469
   3903 C3         59.7000   68.0400   56.2600 c3       178 PET      0.058627
   3904 C4         59.3700   69.3000   57.1000 c3       178 PET      0.058627
   3905 O1         65.7400   62.6200   58.2800 os       178 PET     -0.411922
   3906 O2         67.4100   64.2200   58.3000 o        178 PET     -0.591068
   3907 O3         62.2400   68.8500   56.6800 o        178 PET     -0.591068
   3908 O4         60.7100   67.2100   56.8800 os       178 PET     -0.411922
   3909 HA2        63.4400   63.6500   58.7300 ha       178 PET      0.129090
   3910 HA3        61.6900   65.2600   58.1200 ha       178 PET      0.145907
   3911 HA4        66.4300   66.5600   57.8100 ha       178 PET      0.145907
   3912 HA5        64.7200   68.0900   57.0500 ha       178 PET      0.129090
   3913 H31        60.0500   68.3700   55.2700 h1       178 PET      0.097188
   3914 H32        58.8400   67.4000   56.0900 h1       178 PET      0.097188
   3915 H41        60.0600   70.1100   56.8200 h1       178 PET      0.097188
   3916 H42        59.3500   69.0800   58.1800 h1       178 PET      0.097188
   3917 C1         57.5000   70.8200   57.0300 c        179 PET      0.825469
   3918 CA1        56.0800   71.1700   56.5600 ca       179 PET     -0.163574
   3919 CA2        55.7100   72.5400   56.5000 ca       179 PET     -0.108363
   3920 CA3        54.4100   72.9200   56.1000 ca       179 PET     -0.078542
   3921 CA4        55.0600   70.2300   56.3500 ca       179 PET     -0.078542
   3922 CA5        53.7900   70.6000   55.9300 ca       179 PET     -0.108363
   3923 CA6        53.4500   71.9600   55.8500 ca       179 PET     -0.163574
   3924 C2         51.9900   72.3200   55.5900 c        179 PET      0.825469
   3925 C3         50.3500   73.9700   55.4400 c3       179 PET      0.058627
   3926 C4         50.2300   75.2300   54.5700 c3       179 PET      0.058627
   3927 O1         58.0200   69.6100   56.6800 os       179 PET     -0.411922
   3928 O2         58.1400   71.5800   57.7300 o        179 PET     -0.591068
   3929 O3         51.1800   71.5000   55.2300 o        179 PET     -0.591068
   3930 O4         51.6600   73.6900   55.7000 os       179 PET     -0.411922
   3931 HA2        56.4700   73.3000   56.6700 ha       179 PET      0.129090
   3932 HA3        54.2900   73.9900   55.9300 ha       179 PET      0.145907
   3933 HA4        55.3300   69.1800   56.3300 ha       179 PET      0.145907
   3934 HA5        53.1300   69.8100   55.6100 ha       179 PET      0.129090
   3935 H31        49.8000   73.2100   54.8700 h1       179 PET      0.097188
   3936 H32        49.9500   74.1700   56.4400 h1       179 PET      0.097188
   3937 H41        50.8700   75.1600   53.6800 h1       179 PET      0.097188
   3938 H42        50.6000   76.0500   55.2000 h1       179 PET      0.097188
   3939 C1         48.1400   74.5700   53.4800 c        180 PET      0.825469
   3940 CA1        46.6900   75.0100   53.2800 ca       180 PET     -0.163574
   3941 CA2        46.0900   76.0700   54.0000 ca       180 PET     -0.108363
   3942 CA3        44.7700   76.4300   53.7000 ca       180 PET     -0.078542
   3943 CA4        45.9200   74.1800   52.4300 ca       180 PET     -0.078542
   3944 CA5        44.5900   74.5100   52.1200 ca       180 PET     -0.108363
   3945 CA6        43.9900   75.7000   52.7700 ca       180 PET     -0.163574
   3946 C2         42.5900   76.1600   52.4600 c        180 PET      0.825469
   3947 C3         40.8400   77.5400   53.2100 c3       180 PET      0.058627
   3948 C4         40.7800   78.6300   54.2300 c3       180 PET      0.058627
   3949 O1         48.8400   75.4600   54.2600 os       180 PET     -0.411922
   3950 O2         48.7300   73.6400   52.9600 o        180 PET     -0.591068
   3951 O3         41.8800   75.6800   51.5900 o        180 PET     -0.591068
   3952 O4         42.1900   77.1600   53.3000 os       180 PET     -0.411922
   3953 HA2        46.6800   76.7600   54.5900 ha       180 PET      0.129090
   3954 HA3        44.3900   77.3000   54.2400 ha       180 PET      0.145907
   3955 HA4        46.3100   73.2800   51.9500 ha       180 PET      0.145907
   3956 HA5        44.0800   74.0400   51.2800 ha       180 PET      0.129090
   3957 H31        40.5200   77.9500   52.2400 h1       180 PET      0.097188
   3958 H32        40.0600   76.8200   53.4800 h1       180 PET      0.097188
   3959 H41        39.9000   79.2200   53.9500 h1       180 PET      0.097188
   3960 H42        40.6700   78.3800   55.3000 h1       180 PET      0.097188
   3961 C1         83.5600   13.1800   52.5100 c        181 PET      0.825469
   3962 CA1        82.1000   12.9200   52.4600 ca       181 PET     -0.163574
   3963 CA2        81.1900   13.9400   52.6000 ca       181 PET     -0.108363
   3964 CA3        79.8200   13.7000   52.3800 ca       181 PET     -0.078542
   3965 CA4        81.6300   11.5900   52.3800 ca       181 PET     -0.078542
   3966 CA5        80.2700   11.3400   52.0900 ca       181 PET     -0.108363
   3967 CA6        79.3600   12.4100   52.1100 ca       181 PET     -0.163574
   3968 C2         77.9300   12.1000   51.9000 c        181 PET      0.825469
   3969 C3         75.6900   12.8600   52.0900 c3       181 PET      0.058627
   3970 C4         74.7200   14.0600   52.2200 c3       181 PET      0.058627
   3971 O1         83.9300   14.5100   52.4300 os       181 PET     -0.411922
   3972 O2         84.3500   12.2700   52.6500 o        181 PET     -0.591068
   3973 O3         77.5200   10.9500   51.9000 o        181 PET     -0.591068
   3974 O4         77.1300   13.1800   51.9900 os       181 PET     -0.411922
   3975 HA2        81.5000   14.9800   52.6900 ha       181 PET      0.129090
   3976 HA3        79.1900   14.5800   52.2600 ha       181 PET      0.145907
   3977 HA4        82.2800   10.7200   52.3700 ha       181 PET      0.145907
   3978 HA5        80.0000   10.3300   51.8000 ha       181 PET      0.129090
   3979 H31        75.3300   12.3700   51.1800 h1       181 PET      0.097188
   3980 H32        75.4500   12.2500   52.9800 h1       181 PET      0.097188
   3981 H41        73.6700   13.7800   52.0800 h1       181 PET      0.097188
   3982 H42        74.8700   14.8200   51.4400 h1       181 PET      0.097188
   3983 C1         73.9000   15.4800   54.0800 c        182 PET      0.825469
   3984 CA1        74.2800   16.0500   55.4300 ca       182 PET     -0.163574
   3985 CA2        75.6200   16.1300   55.8400 ca       182 PET     -0.108363
   3986 CA3        75.9800   16.2800   57.1900 ca       182 PET     -0.078542
   3987 CA4        73.2900   16.3400   56.3000 ca       182 PET     -0.078542
   3988 CA5        73.6600   16.6700   57.6500 ca       182 PET     -0.108363
   3989 CA6        74.9800   16.5600   58.1300 ca       182 PET     -0.163574
   3990 C2         75.3300   17.0400   59.5200 c        182 PET      0.825469
   3991 C3         76.8800   18.2000   60.9600 c3       182 PET      0.058627
   3992 C4         78.0800   19.1800   60.6000 c3       182 PET      0.058627
   3993 O1         74.9000   14.6800   53.5500 os       182 PET     -0.411922
   3994 O2         72.8200   15.5600   53.4800 o        182 PET     -0.591068
   3995 O3         74.5300   17.0500   60.4100 o        182 PET     -0.591068
   3996 O4         76.5700   17.5000   59.6500 os       182 PET     -0.411922
   3997 HA2        76.4400   16.0000   55.1500 ha       182 PET      0.129090
   3998 HA3        77.0100   16.2800   57.5400 ha       182 PET      0.145907
   3999 HA4        72.2500   16.3400   56.0000 ha       182 PET      0.145907
   4000 HA5        72.8700   16.9400   58.3500 ha       182 PET      0.129090
   4001 H31        76.0400   18.8500   61.2100 h1       182 PET      0.097188
   4002 H32        77.1400   17.5300   61.7900 h1       182 PET      0.097188
   4003 H41        77.9600   20.1800   61.0400 h1       182 PET      0.097188
   4004 H42        77.9700   19.4300   59.5400 h1       182 PET      0.097188
   4005 C1          0.1500   17.9000   59.9800 c        183 PET      0.825469
   4006 CA1         1.5500   17.8100   60.2900 ca       183 PET     -0.163574
   4007 CA2         2.3600   17.3900   59.2200 ca       183 PET     -0.108363
   4008 CA3         3.7300   17.2500   59.5000 ca       183 PET     -0.078542
   4009 CA4         2.0300   18.1200   61.5500 ca       183 PET     -0.078542
   4010 CA5         3.4500   18.1700   61.7900 ca       183 PET     -0.108363
   4011 CA6         4.2600   17.6700   60.7200 ca       183 PET     -0.163574
   4012 C2          5.7500   17.7400   60.8100 c        183 PET      0.825469
   4013 C3          7.4400   19.0900   61.9900 c3       183 PET      0.058627
   4014 C4          7.2900   20.2300   63.1200 c3       183 PET      0.058627
   4015 O1         -0.5700   18.6400   60.9500 os       183 PET     -0.411922
   4016 O2         -0.3200   17.4700   58.9500 o        183 PET     -0.591068
   4017 O3          6.5100   17.0400   60.2000 o        183 PET     -0.591068
   4018 O4          6.1100   18.7000   61.7000 os       183 PET     -0.411922
   4019 HA2         1.9500   16.9400   58.3100 ha       183 PET      0.129090
   4020 HA3         4.3500   16.9300   58.6700 ha       183 PET      0.145907
   4021 HA4         1.3600   18.2700   62.4000 ha       183 PET      0.145907
   4022 HA5         3.9100   18.5500   62.7000 ha       183 PET      0.129090
   4023 H31         8.0000   18.2500   62.4200 h1       183 PET      0.097188
   4024 H32         8.0100   19.4500   61.1200 h1       183 PET      0.097188
   4025 H41         7.4800   19.6200   64.0100 h1       183 PET      0.097188
   4026 H42         6.3000   20.6900   63.2200 h1       183 PET      0.097188
   4027 C1          8.2800   22.3200   62.2300 c        184 PET      0.825469
   4028 CA1         9.4900   23.1900   62.4200 ca       184 PET     -0.163574
   4029 CA2        10.4600   23.0300   63.5000 ca       184 PET     -0.108363
   4030 CA3        11.5200   23.8900   63.6000 ca       184 PET     -0.078542
   4031 CA4         9.6900   24.2600   61.5600 ca       184 PET     -0.078542
   4032 CA5        10.7400   25.1400   61.7200 ca       184 PET     -0.108363
   4033 CA6        11.6600   24.9900   62.7400 ca       184 PET     -0.163574
   4034 C2         12.7100   26.0500   62.9700 c        184 PET      0.825469
   4035 C3         14.6200   26.7100   64.3600 c3       184 PET      0.058627
   4036 C4         15.8000   26.2900   63.4800 c3       184 PET      0.058627
   4037 O1          8.3500   21.2400   63.0700 os       184 PET     -0.411922
   4038 O2          7.3500   22.5800   61.4900 o        184 PET     -0.591068
   4039 O3         12.7500   27.1400   62.3300 o        184 PET     -0.591068
   4040 O4         13.5700   25.7700   63.9800 os       184 PET     -0.411922
   4041 HA2        10.3800   22.2300   64.2200 ha       184 PET      0.129090
   4042 HA3        12.1700   23.8400   64.4700 ha       184 PET      0.145907
   4043 HA4         9.0100   24.3000   60.7100 ha       184 PET      0.145907
   4044 HA5        10.7900   26.0200   61.0900 ha       184 PET      0.129090
   4045 H31        14.3900   27.7700   64.1700 h1       184 PET      0.097188
   4046 H32        14.8000   26.5900   65.4300 h1       184 PET      0.097188
   4047 H41        16.6900   26.8900   63.7100 h1       184 PET      0.097188
   4048 H42        15.6600   26.5500   62.4200 h1       184 PET      0.097188
   4049 C1         17.1400   24.2600   63.1300 c        185 PET      0.825469
   4050 CA1        17.0600   22.8200   63.2500 ca       185 PET     -0.163574
   4051 CA2        15.9500   22.1300   63.8200 ca       185 PET     -0.108363
   4052 CA3        15.9500   20.7100   63.9600 ca       185 PET     -0.078542
   4053 CA4        18.1900   22.0300   62.9500 ca       185 PET     -0.078542
   4054 CA5        18.2000   20.6100   63.0600 ca       185 PET     -0.108363
   4055 CA6        17.0300   19.9300   63.5400 ca       185 PET     -0.163574
   4056 C2         16.8600   18.4400   63.5700 c        185 PET      0.825469
   4057 C3         15.8300   16.5300   62.4800 c3       185 PET      0.058627
   4058 C4         14.4000   16.9100   62.8000 c3       185 PET      0.058627
   4059 O1         16.0600   24.9200   63.7000 os       185 PET     -0.411922
   4060 O2         17.9200   24.8400   62.4400 o        185 PET     -0.591068
   4061 O3         16.8500   17.8500   64.6200 o        185 PET     -0.591068
   4062 O4         16.5300   17.7700   62.4100 os       185 PET     -0.411922
   4063 HA2        15.0300   22.6400   64.0800 ha       185 PET      0.129090
   4064 HA3        15.0700   20.1800   64.3200 ha       185 PET      0.145907
   4065 HA4        19.0700   22.5300   62.5700 ha       185 PET      0.145907
   4066 HA5        19.0700   20.1100   62.6500 ha       185 PET      0.129090
   4067 H31        15.8400   15.9200   61.5700 h1       185 PET      0.097188
   4068 H32        16.1700   15.9400   63.3400 h1       185 PET      0.097188
   4069 H41        14.3100   17.9100   63.2400 h1       185 PET      0.097188
   4070 H42        13.7800   16.2400   63.4100 h1       185 PET      0.097188
   4071 C1         12.2900   17.0200   61.5800 c        186 PET      0.825469
   4072 CA1        11.7000   17.3800   60.2800 ca       186 PET     -0.163574
   4073 CA2        10.2700   17.4300   60.0900 ca       186 PET     -0.108363
   4074 CA3         9.7300   17.8100   58.8200 ca       186 PET     -0.078542
   4075 CA4        12.5500   17.8000   59.2000 ca       186 PET     -0.078542
   4076 CA5        11.9300   18.0500   57.9600 ca       186 PET     -0.108363
   4077 CA6        10.6000   18.1500   57.7300 ca       186 PET     -0.163574
   4078 C2         10.0900   18.4900   56.3500 c        186 PET      0.825469
   4079 C3          8.1500   18.6600   54.9800 c3       186 PET      0.058627
   4080 C4          7.9000   20.2200   55.0600 c3       186 PET      0.058627
   4081 O1         13.6400   16.9700   61.5900 os       186 PET     -0.411922
   4082 O2         11.6100   16.7800   62.5700 o        186 PET     -0.591068
   4083 O3         10.8700   18.8500   55.4900 o        186 PET     -0.591068
   4084 O4          8.7700   18.1600   56.1800 os       186 PET     -0.411922
   4085 HA2         9.6100   17.3200   60.9500 ha       186 PET      0.129090
   4086 HA3         8.6400   17.8700   58.7600 ha       186 PET      0.145907
   4087 HA4        13.6300   17.7800   59.2600 ha       186 PET      0.145907
   4088 HA5        12.5800   18.2900   57.1200 ha       186 PET      0.129090
   4089 H31         8.6500   18.3600   54.0500 h1       186 PET      0.097188
   4090 H32         7.1600   18.2200   54.7900 h1       186 PET      0.097188
   4091 H41         7.5300   20.6300   54.1100 h1       186 PET      0.097188
   4092 H42         8.9200   20.6200   55.1500 h1       186 PET      0.097188
   4093 C1          5.7700   20.3400   56.0500 c        187 PET      0.825469
   4094 CA1         4.9400   20.6600   57.2600 ca       187 PET     -0.163574
   4095 CA2         5.5500   20.7900   58.5200 ca       187 PET     -0.108363
   4096 CA3         4.7300   20.9800   59.6500 ca       187 PET     -0.078542
   4097 CA4         3.5600   20.6500   57.1600 ca       187 PET     -0.078542
   4098 CA5         2.7200   20.7200   58.3500 ca       187 PET     -0.108363
   4099 CA6         3.3300   20.9400   59.5700 ca       187 PET     -0.163574
   4100 C2          2.4700   21.0600   60.8000 c        187 PET      0.825469
   4101 C3          2.6700   20.9800   63.1800 c3       187 PET      0.058627
   4102 C4          1.8300   22.2100   63.6100 c3       187 PET      0.058627
   4103 O1          7.0900   20.5800   56.2100 os       187 PET     -0.411922
   4104 O2          5.2300   20.0100   54.9900 o        187 PET     -0.591068
   4105 O3          1.2400   21.1300   60.7700 o        187 PET     -0.591068
   4106 O4          3.2300   21.0700   61.9300 os       187 PET     -0.411922
   4107 HA2         6.6300   20.8300   58.6300 ha       187 PET      0.129090
   4108 HA3         5.2400   21.0400   60.6000 ha       187 PET      0.145907
   4109 HA4         3.0700   20.6200   56.1900 ha       187 PET      0.145907
   4110 HA5         1.6400   20.5900   58.2600 ha       187 PET      0.129090
   4111 H31         2.0700   20.0700   63.3100 h1       187 PET      0.097188
   4112 H32         3.4200   20.9200   63.9800 h1       187 PET      0.097188
   4113 H41         2.1000   23.1200   63.0700 h1       187 PET      0.097188
   4114 H42         2.0200   22.3500   64.6800 h1       187 PET      0.097188
   4115 C1         79.6100   21.1300   64.1100 c        188 PET      0.825469
   4116 CA1        78.1100   21.2800   63.8200 ca       188 PET     -0.163574
   4117 CA2        77.6600   22.4200   63.0800 ca       188 PET     -0.108363
   4118 CA3        76.3000   22.5100   62.7800 ca       188 PET     -0.078542
   4119 CA4        77.1300   20.2700   64.1300 ca       188 PET     -0.078542
   4120 CA5        75.7300   20.5200   63.8700 ca       188 PET     -0.108363
   4121 CA6        75.3700   21.6100   63.1500 ca       188 PET     -0.163574
   4122 C2         73.9000   22.0800   63.1600 c        188 PET      0.825469
   4123 C3         71.7000   21.5900   63.9900 c3       188 PET      0.058627
   4124 C4         70.7900   21.1700   62.8000 c3       188 PET      0.058627
   4125 O1         80.4300   22.0600   63.4400 os       188 PET     -0.411922
   4126 O2         80.0500   20.2700   64.8000 o        188 PET     -0.591068
   4127 O3         73.5100   23.1500   62.6800 o        188 PET     -0.591068
   4128 O4         73.0700   21.2100   63.8000 os       188 PET     -0.411922
   4129 HA2        78.4100   23.1600   62.8200 ha       188 PET      0.129090
   4130 HA3        76.0600   23.4500   62.3000 ha       188 PET      0.145907
   4131 HA4        77.4000   19.4100   64.7300 ha       188 PET      0.145907
   4132 HA5        75.0100   19.8200   64.2800 ha       188 PET      0.129090
   4133 H31        71.3800   21.2600   64.9900 h1       188 PET      0.097188
   4134 H32        71.6400   22.6800   64.1100 h1       188 PET      0.097188
   4135 H41        70.0100   21.9100   62.6000 h1       188 PET      0.097188
   4136 H42        70.1900   20.2900   63.0900 h1       188 PET      0.097188
   4137 C1         70.8000   20.2000   60.5500 c        189 PET      0.825469
   4138 CA1        71.6900   20.1000   59.3800 ca       189 PET     -0.163574
   4139 CA2        73.0700   20.4100   59.4800 ca       189 PET     -0.108363
   4140 CA3        73.8900   20.1700   58.3800 ca       189 PET     -0.078542
   4141 CA4        71.1600   19.5700   58.1800 ca       189 PET     -0.078542
   4142 CA5        72.0900   19.3000   57.1100 ca       189 PET     -0.108363
   4143 CA6        73.4400   19.5300   57.2100 ca       189 PET     -0.163574
   4144 C2         74.3700   19.2700   56.0400 c        189 PET      0.825469
   4145 C3         76.5200   19.4300   55.1100 c3       189 PET      0.058627
   4146 C4         77.9000   19.8700   55.5900 c3       189 PET      0.058627
   4147 O1         71.4700   20.7700   61.5900 os       189 PET     -0.411922
   4148 O2         69.6400   19.9400   60.5300 o        189 PET     -0.591068
   4149 O3         73.9200   18.8500   54.9700 o        189 PET     -0.591068
   4150 O4         75.6800   19.5600   56.2300 os       189 PET     -0.411922
   4151 HA2        73.5200   20.8000   60.3900 ha       189 PET      0.129090
   4152 HA3        74.9600   20.3800   58.4800 ha       189 PET      0.145907
   4153 HA4        70.1200   19.2700   58.0800 ha       189 PET      0.145907
   4154 HA5        71.5400   18.7400   56.3600 ha       189 PET      0.129090
   4155 H31        76.4800   18.3900   54.7500 h1       189 PET      0.097188
   4156 H32        76.2100   20.2400   54.4400 h1       189 PET      0.097188
   4157 H41        77.9100   20.2300   56.6300 h1       189 PET      0.097188
   4158 H42        78.2300   20.6600   54.9000 h1       189 PET      0.097188
   4159 C1          0.1400   19.0400   55.5700 c        190 PET      0.825469
   4160 CA1         0.9100   17.7600   55.6300 ca       190 PET     -0.163574
   4161 CA2         2.3200   17.7200   55.3100 ca       190 PET     -0.108363
   4162 CA3         3.0900   16.5700   55.3500 ca       190 PET     -0.078542
   4163 CA4         0.3000   16.5600   56.0200 ca       190 PET     -0.078542
   4164 CA5         1.1500   15.3800   56.1000 ca       190 PET     -0.108363
   4165 CA6         2.5100   15.4200   55.7700 ca       190 PET     -0.163574
   4166 C2          3.4200   14.1900   55.8700 c        190 PET      0.825469
   4167 C3          5.6800   13.4800   55.7000 c3       190 PET      0.058627
   4168 C4          6.9800   13.8400   56.4300 c3       190 PET      0.058627
   4169 O1         -1.2000   18.7600   55.3900 os       190 PET     -0.411922
   4170 O2          0.7000   20.1500   55.5100 o        190 PET     -0.591068
   4171 O3          3.0400   13.0700   55.9700 o        190 PET     -0.591068
   4172 O4          4.7100   14.4900   55.9200 os       190 PET     -0.411922
   4173 HA2         2.7500   18.6200   54.8800 ha       190 PET      0.129090
   4174 HA3         4.1100   16.6000   54.9700 ha       190 PET      0.145907
   4175 HA4        -0.7500   16.5600   56.3000 ha       190 PET      0.145907
   4176 HA5         0.7000   14.4200   56.3300 ha       190 PET      0.129090
   4177 H31         5.3100   12.5000   56.0200 h1       190 PET      0.097188
   4178 H32         5.7300   13.4500   54.6000 h1       190 PET      0.097188
   4179 H41         7.3000   12.9500   56.9900 h1       190 PET      0.097188
   4180 H42         6.6200   14.5800   57.1600 h1       190 PET      0.097188
   4181 C1          9.1900   14.5500   56.2400 c        191 PET      0.825469
   4182 CA1        10.4200   14.9000   55.2700 ca       191 PET     -0.163574
   4183 CA2        11.6600   15.2600   55.8100 ca       191 PET     -0.108363
   4184 CA3        12.7800   15.5100   55.0800 ca       191 PET     -0.078542
   4185 CA4        10.3400   14.8500   53.8800 ca       191 PET     -0.078542
   4186 CA5        11.4300   15.3300   53.1300 ca       191 PET     -0.108363
   4187 CA6        12.6400   15.7100   53.6800 ca       191 PET     -0.163574
   4188 C2         13.8500   15.9200   52.8700 c        191 PET      0.825469
   4189 C3         16.2600   16.1500   52.9200 c3       191 PET      0.058627
   4190 C4         16.6600   14.7700   52.3600 c3       191 PET      0.058627
   4191 O1          8.0100   14.3500   55.6200 os       191 PET     -0.411922
   4192 O2          9.3800   14.4300   57.4700 o        191 PET     -0.591068
   4193 O3         13.8800   15.8700   51.6500 o        191 PET     -0.591068
   4194 O4         14.9700   16.1400   53.6400 os       191 PET     -0.411922
   4195 HA2        11.8800   15.2700   56.8700 ha       191 PET      0.129090
   4196 HA3        13.7200   15.5600   55.6100 ha       191 PET      0.145907
   4197 HA4         9.4500   14.4900   53.3800 ha       191 PET      0.145907
   4198 HA5        11.3600   15.3200   52.0500 ha       191 PET      0.129090
   4199 H31        16.3700   16.9200   52.1500 h1       191 PET      0.097188
   4200 H32        17.0000   16.4200   53.6800 h1       191 PET      0.097188
   4201 H41        16.2100   14.6300   51.3800 h1       191 PET      0.097188
   4202 H42        16.2800   14.0000   53.0400 h1       191 PET      0.097188
   4203 C1         18.7500   14.6800   53.6600 c        192 PET      0.825469
   4204 CA1        20.1600   15.2800   53.6700 ca       192 PET     -0.163574
   4205 CA2        20.7400   15.7500   52.4800 ca       192 PET     -0.108363
   4206 CA3        21.9700   16.4300   52.5600 ca       192 PET     -0.078542
   4207 CA4        20.8400   15.3400   54.9000 ca       192 PET     -0.078542
   4208 CA5        22.0800   16.0700   54.9000 ca       192 PET     -0.108363
   4209 CA6        22.6500   16.4900   53.7200 ca       192 PET     -0.163574
   4210 C2         24.0800   16.9300   53.7300 c        192 PET      0.825469
   4211 C3         25.8600   18.0600   54.8500 c3       192 PET      0.058627
   4212 C4         26.0300   19.0000   55.9900 c3       192 PET      0.058627
   4213 O1         18.1500   14.6800   52.4400 os       192 PET     -0.411922
   4214 O2         18.1500   14.3200   54.6700 o        192 PET     -0.591068
   4215 O3         24.9000   16.4600   52.9300 o        192 PET     -0.591068
   4216 O4         24.4400   17.7300   54.7300 os       192 PET     -0.411922
   4217 HA2        20.2100   15.6500   51.5400 ha       192 PET      0.129090
   4218 HA3        22.3500   16.8700   51.6500 ha       192 PET      0.145907
   4219 HA4        20.5000   14.8900   55.8300 ha       192 PET      0.145907
   4220 HA5        22.5500   16.2800   55.8600 ha       192 PET      0.129090
   4221 H31        26.4100   17.1400   55.0700 h1       192 PET      0.097188
   4222 H32        26.2500   18.4300   53.9000 h1       192 PET      0.097188
   4223 H41        26.2400   18.5000   56.9400 h1       192 PET      0.097188
   4224 H42        25.0900   19.5100   56.2300 h1       192 PET      0.097188
   4225 C1         28.2600   19.8500   55.4600 c        193 PET      0.825469
   4226 CA1        29.0300   21.0600   55.0400 ca       193 PET     -0.163574
   4227 CA2        30.4100   20.8800   55.1100 ca       193 PET     -0.108363
   4228 CA3        31.3200   21.8700   54.7200 ca       193 PET     -0.078542
   4229 CA4        28.5100   22.2200   54.5000 ca       193 PET     -0.078542
   4230 CA5        29.4500   23.1400   53.8900 ca       193 PET     -0.108363
   4231 CA6        30.8600   22.9400   53.9700 ca       193 PET     -0.163574
   4232 C2         31.7600   24.0200   53.3700 c        193 PET      0.825469
   4233 C3         34.0200   24.7900   53.0900 c3       193 PET      0.058627
   4234 C4         34.7500   23.7100   52.2500 c3       193 PET      0.058627
   4235 O1         26.9400   20.1100   55.6100 os       193 PET     -0.411922
   4236 O2         28.7900   18.7600   55.7300 o        193 PET     -0.591068
   4237 O3         31.3400   24.5700   52.4300 o        193 PET     -0.591068
   4238 O4         32.9900   24.1900   53.8900 os       193 PET     -0.411922
   4239 HA2        30.9000   20.0200   55.5500 ha       193 PET      0.129090
   4240 HA3        32.3900   21.7500   54.9000 ha       193 PET      0.145907
   4241 HA4        27.4400   22.4000   54.3800 ha       193 PET      0.145907
   4242 HA5        29.0700   24.0500   53.4400 ha       193 PET      0.129090
   4243 H31        33.5700   25.4500   52.3300 h1       193 PET      0.097188
   4244 H32        34.6600   25.3800   53.7500 h1       193 PET      0.097188
   4245 H41        35.2500   24.1700   51.3800 h1       193 PET      0.097188
   4246 H42        33.9900   22.9700   51.9600 h1       193 PET      0.097188
   4247 C1         36.9300   23.5500   53.3500 c        194 PET      0.825469
   4248 CA1        37.8100   22.7100   54.3200 ca       194 PET     -0.163574
   4249 CA2        37.5700   21.3200   54.5600 ca       194 PET     -0.108363
   4250 CA3        38.5000   20.6900   55.3800 ca       194 PET     -0.078542
   4251 CA4        39.0400   23.2500   54.7100 ca       194 PET     -0.078542
   4252 CA5        39.8800   22.6200   55.5500 ca       194 PET     -0.108363
   4253 CA6        39.5900   21.3300   55.9400 ca       194 PET     -0.163574
   4254 C2         40.3700   20.6700   56.9800 c        194 PET      0.825469
   4255 C3         42.6900   20.4800   57.9600 c3       194 PET      0.058627
   4256 C4         43.0500   19.2300   57.0700 c3       194 PET      0.058627
   4257 O1         35.7800   22.9700   52.9600 os       194 PET     -0.411922
   4258 O2         37.2800   24.6500   52.9800 o        194 PET     -0.591068
   4259 O3         40.0200   19.6600   57.6500 o        194 PET     -0.591068
   4260 O4         41.5900   21.2100   57.2600 os       194 PET     -0.411922
   4261 HA2        36.7100   20.7800   54.1900 ha       194 PET      0.129090
   4262 HA3        38.3700   19.6400   55.6200 ha       194 PET      0.145907
   4263 HA4        39.2700   24.2400   54.3200 ha       194 PET      0.145907
   4264 HA5        40.7600   23.1600   55.8800 ha       194 PET      0.129090
   4265 H31        43.5100   21.1100   58.3300 h1       194 PET      0.097188
   4266 H32        42.2200   20.1700   58.9000 h1       194 PET      0.097188
   4267 H41        42.2800   18.9600   56.3400 h1       194 PET      0.097188
   4268 H42        43.2400   18.3300   57.6700 h1       194 PET      0.097188
   4269 C1         45.4200   19.3000   57.1500 c        195 PET      0.825469
   4270 CA1        46.6400   19.1800   56.2800 ca       195 PET     -0.163574
   4271 CA2        46.5800   19.1100   54.8700 ca       195 PET     -0.108363
   4272 CA3        47.7300   18.9800   54.0600 ca       195 PET     -0.078542
   4273 CA4        47.8900   19.1000   56.9000 ca       195 PET     -0.078542
   4274 CA5        49.0500   18.9300   56.1200 ca       195 PET     -0.108363
   4275 CA6        49.0000   18.8400   54.7400 ca       195 PET     -0.163574
   4276 C2         50.2300   18.5000   54.0300 c        195 PET      0.825469
   4277 C3         52.7100   18.3500   54.1400 c3       195 PET      0.058627
   4278 C4         52.8600   16.8600   54.4400 c3       195 PET      0.058627
   4279 O1         44.2800   19.5100   56.4300 os       195 PET     -0.411922
   4280 O2         45.4400   19.2800   58.3600 o        195 PET     -0.591068
   4281 O3         50.2000   18.0300   52.9000 o        195 PET     -0.591068
   4282 O4         51.4100   18.7700   54.6600 os       195 PET     -0.411922
   4283 HA2        45.6500   19.1500   54.3100 ha       195 PET      0.129090
   4284 HA3        47.6000   18.8300   52.9900 ha       195 PET      0.145907
   4285 HA4        48.0500   19.2600   57.9700 ha       195 PET      0.145907
   4286 HA5        50.0100   18.8900   56.6100 ha       195 PET      0.129090
   4287 H31        52.7100   18.5500   53.0600 h1       195 PET      0.097188
   4288 H32        53.4700   18.9600   54.6400 h1       195 PET      0.097188
   4289 H41        52.4100   16.2900   53.6100 h1       195 PET      0.097188
   4290 H42        52.4000   16.6900   55.4200 h1       195 PET      0.097188
   4291 C1         55.0500   16.5200   53.4900 c        196 PET      0.825469
   4292 CA1        56.2600   15.6800   53.7600 ca       196 PET     -0.163574
   4293 CA2        57.1900   15.4800   52.6400 ca       196 PET     -0.108363
   4294 CA3        58.3400   14.7300   52.7900 ca       196 PET     -0.078542
   4295 CA4        56.5500   15.1100   55.0100 ca       196 PET     -0.078542
   4296 CA5        57.7300   14.3700   55.1600 ca       196 PET     -0.108363
   4297 CA6        58.6200   14.1700   54.0800 ca       196 PET     -0.163574
   4298 C2         59.8700   13.3700   54.3900 c        196 PET      0.825469
   4299 C3         61.9700   12.3800   53.5500 c3       196 PET      0.058627
   4300 C4         62.8900   12.5900   52.3800 c3       196 PET      0.058627
   4301 O1         54.2700   16.4600   54.6100 os       196 PET     -0.411922
   4302 O2         54.7400   17.0100   52.4200 o        196 PET     -0.591068
   4303 O3         60.1100   12.8600   55.5000 o        196 PET     -0.591068
   4304 O4         60.7900   13.1700   53.3800 os       196 PET     -0.411922
   4305 HA2        56.9300   15.9500   51.7000 ha       196 PET      0.129090
   4306 HA3        58.9800   14.6400   51.9300 ha       196 PET      0.145907
   4307 HA4        55.8500   15.1800   55.8300 ha       196 PET      0.145907
   4308 HA5        57.9800   14.0000   56.1500 ha       196 PET      0.129090
   4309 H31        62.5400   12.6400   54.4500 h1       196 PET      0.097188
   4310 H32        61.6900   11.3300   53.6700 h1       196 PET      0.097188
   4311 H41        62.3700   13.0400   51.5300 h1       196 PET      0.097188
   4312 H42        63.2100   11.6300   51.9700 h1       196 PET      0.097188
   4313 C1         64.1500   14.7000   52.5200 c        197 PET      0.825469
   4314 CA1        65.3900   15.4500   53.0400 ca       197 PET     -0.163574
   4315 CA2        66.1000   14.9600   54.1200 ca       197 PET     -0.108363
   4316 CA3        67.3500   15.6100   54.4300 ca       197 PET     -0.078542
   4317 CA4        66.0300   16.4900   52.2100 ca       197 PET     -0.078542
   4318 CA5        67.2300   17.0700   52.5800 ca       197 PET     -0.108363
   4319 CA6        67.9200   16.6400   53.7200 ca       197 PET     -0.163574
   4320 C2         69.2400   17.2700   54.2400 c        197 PET      0.825469
   4321 C3         71.0600   18.7000   53.3700 c3       197 PET      0.058627
   4322 C4         71.5700   19.1100   52.0000 c3       197 PET      0.058627
   4323 O1         64.1200   13.3500   52.7700 os       197 PET     -0.411922
   4324 O2         63.3200   15.2800   51.8700 o        197 PET     -0.591068
   4325 O3         69.8100   17.1100   55.2500 o        197 PET     -0.591068
   4326 O4         69.7700   17.9800   53.2400 os       197 PET     -0.411922
   4327 HA2        65.7400   14.1100   54.6800 ha       197 PET      0.129090
   4328 HA3        67.7800   15.1700   55.3300 ha       197 PET      0.145907
   4329 HA4        65.5100   16.7800   51.3000 ha       197 PET      0.145907
   4330 HA5        67.6500   17.7800   51.8800 ha       197 PET      0.129090
   4331 H31        70.9900   19.5800   54.0100 h1       197 PET      0.097188
   4332 H32        71.7700   17.9300   53.7200 h1       197 PET      0.097188
   4333 H41        71.2700   20.1300   51.7400 h1       197 PET      0.097188
   4334 H42        71.1500   18.5100   51.1700 h1       197 PET      0.097188
   4335 C1         73.9400   20.0000   51.9200 c        198 PET      0.825469
   4336 CA1        75.3400   19.5300   52.0000 ca       198 PET     -0.163574
   4337 CA2        75.6900   18.1300   52.2000 ca       198 PET     -0.108363
   4338 CA3        77.0400   17.7500   52.1500 ca       198 PET     -0.078542
   4339 CA4        76.3300   20.4600   51.8900 ca       198 PET     -0.078542
   4340 CA5        77.7200   20.0300   51.8000 ca       198 PET     -0.108363
   4341 CA6        78.1000   18.7000   52.0100 ca       198 PET     -0.163574
   4342 C2         79.5400   18.2000   51.9900 c        198 PET      0.825469
   4343 C3         81.8500   18.8000   51.8700 c3       198 PET      0.058627
   4344 C4         82.6200   20.0900   52.1300 c3       198 PET      0.058627
   4345 O1         73.0300   18.9200   51.9400 os       198 PET     -0.411922
   4346 O2         73.5900   21.1700   51.7700 o        198 PET     -0.591068
   4347 O3         79.7900   17.0000   51.9700 o        198 PET     -0.591068
   4348 O4         80.5200   19.1500   51.8800 os       198 PET     -0.411922
   4349 HA2        74.8700   17.4300   52.3400 ha       198 PET      0.129090
   4350 HA3        77.2500   16.7100   52.3400 ha       198 PET      0.145907
   4351 HA4        76.0900   21.5200   51.8500 ha       198 PET      0.145907
   4352 HA5        78.5200   20.7600   51.6600 ha       198 PET      0.129090
   4353 H31        81.9700   18.0700   52.6800 h1       198 PET      0.097188
   4354 H32        82.2400   18.3800   50.9300 h1       198 PET      0.097188
   4355 H41        82.5600   20.3800   53.1800 h1       198 PET      0.097188
   4356 H42        82.2100   20.8600   51.4800 h1       198 PET      0.097188
   4357 C1          4.9100   20.8200   51.8800 c        199 PET      0.825469
   4358 CA1         6.3700   20.3500   51.7200 ca       199 PET     -0.163574
   4359 CA2         7.4100   21.3700   51.7900 ca       199 PET     -0.108363
   4360 CA3         8.7400   20.9500   51.8600 ca       199 PET     -0.078542
   4361 CA4         6.7800   19.0100   51.6800 ca       199 PET     -0.078542
   4362 CA5         8.1000   18.6700   51.5900 ca       199 PET     -0.108363
   4363 CA6         9.1000   19.6100   51.6700 ca       199 PET     -0.163574
   4364 C2         10.5500   19.2500   51.8100 c        199 PET      0.825469
   4365 C3         12.6000   19.9900   52.9900 c3       199 PET      0.058627
   4366 C4         13.5400   20.4100   51.8000 c3       199 PET      0.058627
   4367 O1          4.0300   19.8100   51.7700 os       199 PET     -0.411922
   4368 O2          4.6300   22.0200   51.9800 o        199 PET     -0.591068
   4369 O3         11.0100   18.1800   51.4600 o        199 PET     -0.591068
   4370 O4         11.2400   20.2200   52.5400 os       199 PET     -0.411922
   4371 HA2         7.1000   22.4100   51.7300 ha       199 PET      0.129090
   4372 HA3         9.4500   21.7700   51.8500 ha       199 PET      0.145907
   4373 HA4         6.0500   18.2100   51.5800 ha       199 PET      0.145907
   4374 HA5         8.3600   17.6200   51.5000 ha       199 PET      0.129090
   4375 H31        12.8300   20.5800   53.8900 h1       199 PET      0.097188
   4376 H32        12.5900   18.9100   53.2000 h1       199 PET      0.097188
   4377 H41        12.9500   20.7100   50.9200 h1       199 PET      0.097188
   4378 H42        14.1700   19.6100   51.4000 h1       199 PET      0.097188
   4379 C1         13.8000   22.7900   52.0400 c        200 PET      0.825469
   4380 CA1        14.8600   23.9000   52.1300 ca       200 PET     -0.163574
   4381 CA2        14.4100   25.2100   52.1200 ca       200 PET     -0.108363
   4382 CA3        15.2700   26.3300   52.1100 ca       200 PET     -0.078542
   4383 CA4        16.2400   23.6000   52.1000 ca       200 PET     -0.078542
   4384 CA5        17.1400   24.6700   51.9900 ca       200 PET     -0.108363
   4385 CA6        16.7100   26.0200   52.0600 ca       200 PET     -0.163574
   4386 C2         17.7300   27.1000   51.7900 c        200 PET      0.825469
   4387 C3         18.2800   29.4400   52.0200 c3       200 PET      0.058627
   4388 C4         17.4400   30.7700   52.0600 c3       200 PET      0.058627
   4389 O1         14.3300   21.6000   52.2200 os       200 PET     -0.411922
   4390 O2         12.6100   23.0500   51.7600 o        200 PET     -0.591068
   4391 O3         18.8700   26.8200   51.5200 o        200 PET     -0.591068
   4392 O4         17.3200   28.3700   52.1600 os       200 PET     -0.411922
   4393 HA2        13.3400   25.3600   52.2100 ha       200 PET      0.129090
   4394 HA3        14.9800   27.3800   52.0900 ha       200 PET      0.145907
   4395 HA4        16.5700   22.5700   52.0400 ha       200 PET      0.145907
   4396 HA5        18.1900   24.3900   51.8800 ha       200 PET      0.129090
   4397 H31        18.9300   29.4700   52.9100 h1       200 PET      0.097188
   4398 H32        18.8400   29.3700   51.0800 h1       200 PET      0.097188
   4399 H41        16.9900   30.7400   53.0600 h1       200 PET      0.097188
   4400 H42        16.6300   30.7800   51.3200 h1       200 PET      0.097188
   4401 C1         17.8300   33.1900   51.8400 c        201 PET      0.825469
   4402 CA1        18.8700   34.2400   51.8400 ca       201 PET     -0.163574
   4403 CA2        20.2400   33.9300   51.7000 ca       201 PET     -0.108363
   4404 CA3        21.1900   35.0100   51.7300 ca       201 PET     -0.078542
   4405 CA4        18.4300   35.5700   51.7800 ca       201 PET     -0.078542
   4406 CA5        19.3600   36.6300   51.7600 ca       201 PET     -0.108363
   4407 CA6        20.7400   36.3300   51.7100 ca       201 PET     -0.163574
   4408 C2         21.8100   37.4400   51.9000 c        201 PET      0.825469
   4409 C3         22.0400   39.8000   52.1000 c3       201 PET      0.058627
   4410 C4         21.2200   41.0400   52.2700 c3       201 PET      0.058627
   4411 O1         18.3200   31.9300   51.8700 os       201 PET     -0.411922
   4412 O2         16.6300   33.4500   51.9800 o        201 PET     -0.591068
   4413 O3         22.9700   37.1600   52.2200 o        201 PET     -0.591068
   4414 O4         21.1600   38.6600   51.9600 os       201 PET     -0.411922
   4415 HA2        20.6200   32.9500   51.9600 ha       201 PET      0.129090
   4416 HA3        22.2400   34.7600   51.8400 ha       201 PET      0.145907
   4417 HA4        17.3800   35.8300   51.7500 ha       201 PET      0.145907
   4418 HA5        18.9900   37.6500   51.7600 ha       201 PET      0.129090
   4419 H31        22.6700   39.7400   52.9900 h1       201 PET      0.097188
   4420 H32        22.7200   39.8200   51.2400 h1       201 PET      0.097188
   4421 H41        20.8300   40.9300   53.2900 h1       201 PET      0.097188
   4422 H42        20.3400   41.1700   51.6200 h1       201 PET      0.097188
   4423 C1         21.7600   43.4600   52.5700 c        202 PET      0.825469
   4424 CA1        22.8200   44.5600   52.5100 ca       202 PET     -0.163574
   4425 CA2        24.1900   44.4000   52.1100 ca       202 PET     -0.108363
   4426 CA3        25.0700   45.5200   52.0800 ca       202 PET     -0.078542
   4427 CA4        22.4300   45.9100   52.8700 ca       202 PET     -0.078542
   4428 CA5        23.3000   47.0000   52.7700 ca       202 PET     -0.108363
   4429 CA6        24.6500   46.8000   52.5200 ca       202 PET     -0.163574
   4430 C2         25.5800   47.9900   52.5000 c        202 PET      0.825469
   4431 C3         27.8500   48.6300   51.9500 c3       202 PET      0.058627
   4432 C4         28.2900   49.4700   53.1900 c3       202 PET      0.058627
   4433 O1         22.1200   42.2100   52.1200 os       202 PET     -0.411922
   4434 O2         20.5700   43.6600   52.9700 o        202 PET     -0.591068
   4435 O3         25.1800   49.1200   52.5800 o        202 PET     -0.591068
   4436 O4         26.9200   47.6200   52.3900 os       202 PET     -0.411922
   4437 HA2        24.5400   43.4100   51.8200 ha       202 PET      0.129090
   4438 HA3        26.1000   45.3300   51.8000 ha       202 PET      0.145907
   4439 HA4        21.3900   46.1700   53.0600 ha       202 PET      0.145907
   4440 HA5        22.9500   47.9900   53.0600 ha       202 PET      0.129090
   4441 H31        28.7900   48.2500   51.5300 h1       202 PET      0.097188
   4442 H32        27.4100   49.3100   51.2100 h1       202 PET      0.097188
   4443 H41        28.8600   48.8200   53.8700 h1       202 PET      0.097188
   4444 H42        27.3800   49.8200   53.7000 h1       202 PET      0.097188
   4445 C1         28.8100   51.5800   52.2300 c        203 PET      0.825469
   4446 CA1        29.8700   52.6100   52.1000 ca       203 PET     -0.163574
   4447 CA2        31.2200   52.2900   52.3200 ca       203 PET     -0.108363
   4448 CA3        32.2200   53.2800   52.3500 ca       203 PET     -0.078542
   4449 CA4        29.5500   53.9400   51.8000 ca       203 PET     -0.078542
   4450 CA5        30.5400   54.9500   51.8600 ca       203 PET     -0.108363
   4451 CA6        31.8700   54.6800   52.2500 ca       203 PET     -0.163574
   4452 C2         32.8700   55.7700   52.2600 c        203 PET      0.825469
   4453 C3         35.3600   56.0200   52.2700 c3       203 PET      0.058627
   4454 C4         36.5200   54.9700   52.2200 c3       203 PET      0.058627
   4455 O1         29.2500   50.4500   52.9000 os       203 PET     -0.411922
   4456 O2         27.6800   51.7000   51.7100 o        203 PET     -0.591068
   4457 O3         32.6400   56.9400   52.6000 o        203 PET     -0.591068
   4458 O4         34.1300   55.2900   52.1100 os       203 PET     -0.411922
   4459 HA2        31.4100   51.2200   52.3800 ha       203 PET      0.129090
   4460 HA3        33.2500   52.9600   52.5000 ha       203 PET      0.145907
   4461 HA4        28.5500   54.2000   51.4500 ha       203 PET      0.145907
   4462 HA5        30.3400   55.9800   51.6100 ha       203 PET      0.129090
   4463 H31        35.4500   56.7600   51.4700 h1       203 PET      0.097188
   4464 H32        35.3600   56.6000   53.2000 h1       203 PET      0.097188
   4465 H41        36.3400   54.3100   51.3600 h1       203 PET      0.097188
   4466 H42        36.6300   54.2800   53.0700 h1       203 PET      0.097188
   4467 C1         38.8200   54.8600   52.0800 c        204 PET      0.825469
   4468 CA1        40.2100   55.5700   52.1300 ca       204 PET     -0.163574
   4469 CA2        41.3100   54.7400   51.8400 ca       204 PET     -0.108363
   4470 CA3        42.5900   55.1800   52.0200 ca       204 PET     -0.078542
   4471 CA4        40.3900   56.9000   52.4900 ca       204 PET     -0.078542
   4472 CA5        41.7100   57.3600   52.6300 ca       204 PET     -0.108363
   4473 CA6        42.7900   56.5300   52.4400 ca       204 PET     -0.163574
   4474 C2         44.2300   57.0500   52.4000 c        204 PET      0.825469
   4475 C3         45.7400   58.9400   52.3100 c3       204 PET      0.058627
   4476 C4         45.5100   60.4500   51.9700 c3       204 PET      0.058627
   4477 O1         37.7400   55.6700   52.0600 os       204 PET     -0.411922
   4478 O2         38.7900   53.6100   52.1500 o        204 PET     -0.591068
   4479 O3         45.2000   56.3100   52.2300 o        204 PET     -0.591068
   4480 O4         44.4100   58.3800   52.5900 os       204 PET     -0.411922
   4481 HA2        41.1300   53.7100   51.5400 ha       204 PET      0.129090
   4482 HA3        43.4200   54.4800   51.9900 ha       204 PET      0.145907
   4483 HA4        39.5200   57.4700   52.8100 ha       204 PET      0.145907
   4484 HA5        41.8600   58.3800   52.9700 ha       204 PET      0.129090
   4485 H31        46.4000   58.8300   53.1700 h1       204 PET      0.097188
   4486 H32        46.2800   58.3900   51.5300 h1       204 PET      0.097188
   4487 H41        44.8700   60.9400   52.7200 h1       204 PET      0.097188
   4488 H42        45.0200   60.4700   50.9900 h1       204 PET      0.097188
   4489 C1         46.8300   62.5100   52.1600 c        205 PET      0.825469
   4490 CA1        48.2500   63.0500   52.2000 ca       205 PET     -0.163574
   4491 CA2        48.5300   64.3800   51.9300 ca       205 PET     -0.108363
   4492 CA3        49.8200   64.8800   51.8800 ca       205 PET     -0.078542
   4493 CA4        49.3500   62.1500   52.4100 ca       205 PET     -0.078542
   4494 CA5        50.6900   62.6700   52.2700 ca       205 PET     -0.108363
   4495 CA6        50.9200   64.0200   52.1000 ca       205 PET     -0.163574
   4496 C2         52.3200   64.5300   52.0400 c        205 PET      0.825469
   4497 C3         53.7700   66.5100   51.9200 c3       205 PET      0.058627
   4498 C4         53.7400   68.0100   52.3400 c3       205 PET      0.058627
   4499 O1         46.8000   61.1200   51.9300 os       205 PET     -0.411922
   4500 O2         45.8100   63.1100   52.4600 o        205 PET     -0.591068
   4501 O3         53.3000   63.7500   51.9400 o        205 PET     -0.591068
   4502 O4         52.4200   65.9200   52.0800 os       205 PET     -0.411922
   4503 HA2        47.7300   65.0900   51.7100 ha       205 PET      0.129090
   4504 HA3        49.9400   65.9400   51.6700 ha       205 PET      0.145907
   4505 HA4        49.0900   61.1200   52.6300 ha       205 PET      0.145907
   4506 HA5        51.5600   62.1000   52.5600 ha       205 PET      0.129090
   4507 H31        54.5100   65.9900   52.5400 h1       205 PET      0.097188
   4508 H32        54.1900   66.4800   50.9000 h1       205 PET      0.097188
   4509 H41        53.2600   68.2100   53.3100 h1       205 PET      0.097188
   4510 H42        53.3000   68.7100   51.6200 h1       205 PET      0.097188
   4511 C1         55.4900   69.6000   52.7500 c        206 PET      0.825469
   4512 CA1        57.0000   69.8700   52.8300 ca       206 PET     -0.163574
   4513 CA2        57.5400   70.8800   53.6500 ca       206 PET     -0.108363
   4514 CA3        58.9600   71.0700   53.6500 ca       206 PET     -0.078542
   4515 CA4        57.8000   68.9900   52.0900 ca       206 PET     -0.078542
   4516 CA5        59.2300   69.2600   52.0700 ca       206 PET     -0.108363
   4517 CA6        59.8000   70.2600   52.8900 ca       206 PET     -0.163574
   4518 C2         61.2700   70.4200   53.0000 c        206 PET      0.825469
   4519 C3         63.1300   71.8900   53.4000 c3       206 PET      0.058627
   4520 C4         63.4100   72.6700   52.1300 c3       206 PET      0.058627
   4521 O1         55.1900   68.3400   52.4000 os       206 PET     -0.411922
   4522 O2         54.6300   70.4500   52.8500 o        206 PET     -0.591068
   4523 O3         62.0100   69.6200   52.5000 o        206 PET     -0.591068
   4524 O4         61.7300   71.6000   53.5500 os       206 PET     -0.411922
   4525 HA2        56.8700   71.5700   54.1500 ha       206 PET      0.129090
   4526 HA3        59.3800   71.8900   54.2300 ha       206 PET      0.145907
   4527 HA4        57.4500   68.2100   51.4300 ha       206 PET      0.145907
   4528 HA5        59.8300   68.6900   51.3600 ha       206 PET      0.129090
   4529 H31        63.4800   72.5100   54.2300 h1       206 PET      0.097188
   4530 H32        63.7100   70.9700   53.4900 h1       206 PET      0.097188
   4531 H41        62.8000   73.5800   52.0700 h1       206 PET      0.097188
   4532 H42        63.1700   72.0600   51.2500 h1       206 PET      0.097188
   4533 C1         65.7100   72.0400   51.8100 c        207 PET      0.825469
   4534 CA1        67.1200   72.5100   51.8300 ca       207 PET     -0.163574
   4535 CA2        67.5600   73.8600   52.0700 ca       207 PET     -0.108363
   4536 CA3        68.9100   74.2200   52.1700 ca       207 PET     -0.078542
   4537 CA4        68.1100   71.5400   51.4900 ca       207 PET     -0.078542
   4538 CA5        69.4600   71.8800   51.6400 ca       207 PET     -0.108363
   4539 CA6        69.9100   73.2200   51.9600 ca       207 PET     -0.163574
   4540 C2         71.3700   73.6200   52.0200 c        207 PET      0.825469
   4541 C3         73.6200   72.8500   52.4100 c3       207 PET      0.058627
   4542 C4         74.4000   71.5300   52.0200 c3       207 PET      0.058627
   4543 O1         64.8000   73.0600   51.9700 os       207 PET     -0.411922
   4544 O2         65.4700   70.8900   51.6000 o        207 PET     -0.591068
   4545 O3         71.6500   74.8100   52.1400 o        207 PET     -0.591068
   4546 O4         72.2700   72.6600   52.0000 os       207 PET     -0.411922
   4547 HA2        66.8500   74.6600   52.2300 ha       207 PET      0.129090
   4548 HA3        69.3000   75.2000   52.4400 ha       207 PET      0.145907
   4549 HA4        67.8900   70.5200   51.1900 ha       207 PET      0.145907
   4550 HA5        70.2300   71.1100   51.5400 ha       207 PET      0.129090
   4551 H31        74.0200   73.6800   51.8200 h1       207 PET      0.097188
   4552 H32        73.7800   72.9000   53.5000 h1       207 PET      0.097188
   4553 H41        74.3100   71.2700   50.9500 h1       207 PET      0.097188
   4554 H42        74.0500   70.6100   52.5000 h1       207 PET      0.097188
   4555 C1         -3.2200   70.9100   52.2300 c        208 PET      0.825469
   4556 CA1        -1.8800   71.4800   52.6100 ca       208 PET     -0.163574
   4557 CA2        -1.6100   72.5500   53.4300 ca       208 PET     -0.108363
   4558 CA3        -0.3200   73.0300   53.6900 ca       208 PET     -0.078542
   4559 CA4        -0.7600   70.8000   52.0300 ca       208 PET     -0.078542
   4560 CA5         0.5000   71.2700   52.1900 ca       208 PET     -0.108363
   4561 CA6         0.7500   72.3500   53.1000 ca       208 PET     -0.163574
   4562 C2          2.1700   72.8600   53.3600 c        208 PET      0.825469
   4563 C3          4.4500   72.7200   52.4100 c3       208 PET      0.058627
   4564 C4          4.6100   74.2600   52.1100 c3       208 PET      0.058627
   4565 O1         -4.2000   71.8500   52.4000 os       208 PET     -0.411922
   4566 O2         -3.4300   69.7300   51.8900 o        208 PET     -0.591068
   4567 O3          2.6100   73.4400   54.3000 o        208 PET     -0.591068
   4568 O4          3.0300   72.3800   52.4000 os       208 PET     -0.411922
   4569 HA2        -2.4200   73.1100   53.8700 ha       208 PET      0.129090
   4570 HA3        -0.1300   73.7800   54.4500 ha       208 PET      0.145907
   4571 HA4        -1.0000   69.8900   51.4900 ha       208 PET      0.145907
   4572 HA5         1.3100   70.6300   51.8500 ha       208 PET      0.129090
   4573 H31         4.9600   72.6100   53.3700 h1       208 PET      0.097188
   4574 H32         4.9100   72.0300   51.6800 h1       208 PET      0.097188
   4575 H41         4.2200   74.8900   52.9100 h1       208 PET      0.097188
   4576 H42         4.0600   74.4200   51.1800 h1       208 PET      0.097188
   4577 C1          6.2600   75.9500   51.9200 c        209 PET      0.825469
   4578 CA1         7.7000   76.3600   51.8500 ca       209 PET     -0.163574
   4579 CA2         8.0000   77.7500   51.8200 ca       209 PET     -0.108363
   4580 CA3         9.2900   78.2200   51.7200 ca       209 PET     -0.078542
   4581 CA4         8.6800   75.4300   51.9800 ca       209 PET     -0.078542
   4582 CA5        10.0100   75.9100   51.9000 ca       209 PET     -0.108363
   4583 CA6        10.3600   77.2800   51.8700 ca       209 PET     -0.163574
   4584 C2         11.7500   77.7500   51.8700 c        209 PET      0.825469
   4585 C3         14.0700   76.9800   52.4800 c3       209 PET      0.058627
   4586 C4         14.3600   78.0800   53.5500 c3       209 PET      0.058627
   4587 O1          6.0000   74.5500   52.0000 os       209 PET     -0.411922
   4588 O2          5.3500   76.8300   52.0200 o        209 PET     -0.591068
   4589 O3         12.0200   78.9300   51.6200 o        209 PET     -0.591068
   4590 O4         12.6300   76.7800   52.3600 os       209 PET     -0.411922
   4591 HA2         7.1300   78.4000   51.8400 ha       209 PET      0.129090
   4592 HA3         9.5600   79.2700   51.7600 ha       209 PET      0.145907
   4593 HA4         8.4400   74.4000   52.2500 ha       209 PET      0.145907
   4594 HA5        10.8200   75.2100   52.1000 ha       209 PET      0.129090
   4595 H31        14.5800   76.0400   52.7600 h1       209 PET      0.097188
   4596 H32        14.4600   77.3300   51.5200 h1       209 PET      0.097188
   4597 H41        14.1400   77.5900   54.5100 h1       209 PET      0.097188
   4598 H42        13.6600   78.9200   53.5700 h1       209 PET      0.097188
   4599 C1         16.0900   79.5600   52.7000 c        210 PET      0.825469
   4600 CA1        17.5600   79.7300   52.6400 ca       210 PET     -0.163574
   4601 CA2        18.0500   81.0200   52.4000 ca       210 PET     -0.108363
   4602 CA3        19.3700   81.2100   52.0600 ca       210 PET     -0.078542
   4603 CA4        18.3700   78.6500   52.5600 ca       210 PET     -0.078542
   4604 CA5        19.7800   78.8500   52.3600 ca       210 PET     -0.108363
   4605 CA6        20.2700   80.1400   52.1200 ca       210 PET     -0.163574
   4606 C2         21.7400   80.4000   51.8700 c        210 PET      0.825469
   4607 C3         23.4700   82.2200   51.7000 c3       210 PET      0.058627
   4608 C4         23.6200   83.5800   51.1600 c3       210 PET      0.058627
   4609 O1         15.7600   78.4200   53.4800 os       210 PET     -0.411922
   4610 O2         15.2500   80.2400   52.0500 o        210 PET     -0.591068
   4611 O3         22.6100   79.5400   51.8600 o        210 PET     -0.591068
   4612 O4         22.0700   81.7700   51.5700 os       210 PET     -0.411922
   4613 HA2        17.3400   81.8400   52.3000 ha       210 PET      0.129090
   4614 HA3        19.7300   82.1800   51.7500 ha       210 PET      0.145907
   4615 HA4        17.9100   77.6600   52.6300 ha       210 PET      0.145907
   4616 HA5        20.4300   77.9900   52.1900 ha       210 PET      0.129090
   4617 H31        23.6800   82.2000   52.7700 h1       210 PET      0.097188
   4618 H32        24.1300   81.5100   51.1800 h1       210 PET      0.097188
   4619 H41        22.9200   84.1900   51.7400 h1       210 PET      0.097188
   4620 H42        24.6400   83.9600   51.2900 h1       210 PET      0.097188
   4621 C1         18.4100   80.1200   56.0800 c        211 PET      0.825469
   4622 CA1        18.3100   78.5900   56.0400 ca       211 PET     -0.163574
   4623 CA2        17.0500   77.9500   56.3900 ca       211 PET     -0.108363
   4624 CA3        17.0300   76.5300   56.5000 ca       211 PET     -0.078542
   4625 CA4        19.4500   77.8300   55.7800 ca       211 PET     -0.078542
   4626 CA5        19.3600   76.4800   55.8400 ca       211 PET     -0.108363
   4627 CA6        18.1700   75.7700   56.2600 ca       211 PET     -0.163574
   4628 C2         18.3400   74.3100   56.4300 c        211 PET      0.825469
   4629 C3         17.2800   72.4900   57.5400 c3       211 PET      0.058627
   4630 C4         16.2500   72.2800   58.6000 c3       211 PET      0.058627
   4631 O1         17.3300   80.7500   56.6300 os       211 PET     -0.411922
   4632 O2         19.4300   80.7500   55.7400 o        211 PET     -0.591068
   4633 O3         19.2500   73.6500   56.0600 o        211 PET     -0.591068
   4634 O4         17.3000   73.8500   57.1600 os       211 PET     -0.411922
   4635 HA2        16.1800   78.5400   56.6600 ha       211 PET      0.129090
   4636 HA3        16.1200   76.1300   56.9300 ha       211 PET      0.145907
   4637 HA4        20.3900   78.3200   55.5400 ha       211 PET      0.145907
   4638 HA5        20.2300   75.8800   55.6100 ha       211 PET      0.129090
   4639 H31        17.1000   71.9500   56.6000 h1       211 PET      0.097188
   4640 H32        18.2200   72.1100   57.9600 h1       211 PET      0.097188
   4641 H41        15.5700   73.1400   58.5200 h1       211 PET      0.097188
   4642 H42        16.7800   72.4100   59.5600 h1       211 PET      0.097188
   4643 C1         16.1700   69.9200   58.7600 c        212 PET      0.825469
   4644 CA1        15.1700   68.8000   58.9700 ca       212 PET     -0.163574
   4645 CA2        15.5700   67.6700   59.7400 ca       212 PET     -0.108363
   4646 CA3        14.5600   66.7900   60.1900 ca       212 PET     -0.078542
   4647 CA4        13.9000   68.8300   58.4300 ca       212 PET     -0.078542
   4648 CA5        12.8900   67.9300   58.8700 ca       212 PET     -0.108363
   4649 CA6        13.1600   66.9600   59.8000 ca       212 PET     -0.163574
   4650 C2         12.0600   66.0100   60.1600 c        212 PET      0.825469
   4651 C3         11.5600   63.7900   60.8700 c3       212 PET      0.058627
   4652 C4         11.9800   62.6400   61.8200 c3       212 PET      0.058627
   4653 O1         15.5200   71.0300   58.4100 os       212 PET     -0.411922
   4654 O2         17.3900   69.7800   58.9400 o        212 PET     -0.591068
   4655 O3         10.9900   66.0400   59.6000 o        212 PET     -0.591068
   4656 O4         12.3700   65.0100   60.9900 os       212 PET     -0.411922
   4657 HA2        16.5000   67.5800   60.2800 ha       212 PET      0.129090
   4658 HA3        14.8700   65.9400   60.7800 ha       212 PET      0.145907
   4659 HA4        13.5800   69.6100   57.7500 ha       212 PET      0.145907
   4660 HA5        11.8900   68.0700   58.4800 ha       212 PET      0.129090
   4661 H31        10.5300   64.0400   61.1600 h1       212 PET      0.097188
   4662 H32        11.4900   63.4700   59.8300 h1       212 PET      0.097188
   4663 H41        11.1900   61.8900   61.9400 h1       212 PET      0.097188
   4664 H42        12.1500   63.1500   62.7800 h1       212 PET      0.097188
   4665 C1         13.7100   60.8900   61.5000 c        213 PET      0.825469
   4666 CA1        15.1400   60.6900   61.2900 ca       213 PET     -0.163574
   4667 CA2        15.5300   59.3200   61.1800 ca       213 PET     -0.108363
   4668 CA3        16.9200   59.0600   60.9800 ca       213 PET     -0.078542
   4669 CA4        16.1000   61.7500   61.3900 ca       213 PET     -0.078542
   4670 CA5        17.5100   61.4500   61.2700 ca       213 PET     -0.108363
   4671 CA6        17.9300   60.1200   61.1100 ca       213 PET     -0.163574
   4672 C2         19.3800   59.7300   60.8700 c        213 PET      0.825469
   4673 C3         21.6800   60.6300   60.9300 c3       213 PET      0.058627
   4674 C4         22.0600   60.5200   59.3900 c3       213 PET      0.058627
   4675 O1         13.3500   62.2400   61.4100 os       213 PET     -0.411922
   4676 O2         12.9300   59.9900   61.7200 o        213 PET     -0.591068
   4677 O3         19.7300   58.6100   60.5200 o        213 PET     -0.591068
   4678 O4         20.2300   60.7500   61.1500 os       213 PET     -0.411922
   4679 HA2        14.9400   58.4200   61.0900 ha       213 PET      0.129090
   4680 HA3        17.2600   58.0800   60.6600 ha       213 PET      0.145907
   4681 HA4        15.8300   62.7800   61.6400 ha       213 PET      0.145907
   4682 HA5        18.1200   62.3400   61.2900 ha       213 PET      0.129090
   4683 H31        22.0600   61.6400   61.1500 h1       213 PET      0.097188
   4684 H32        22.1500   59.8600   61.5500 h1       213 PET      0.097188
   4685 H41        21.4200   61.2100   58.8300 h1       213 PET      0.097188
   4686 H42        21.9000   59.5000   59.0000 h1       213 PET      0.097188
   4687 C1         23.7600   62.1600   59.2000 c        214 PET      0.825469
   4688 CA1        25.2000   62.4100   58.7900 ca       214 PET     -0.163574
   4689 CA2        26.1500   61.3500   58.6400 ca       214 PET     -0.108363
   4690 CA3        27.3900   61.6100   57.9800 ca       214 PET     -0.078542
   4691 CA4        25.6100   63.7100   58.5700 ca       214 PET     -0.078542
   4692 CA5        26.8800   63.9700   57.9200 ca       214 PET     -0.108363
   4693 CA6        27.7300   62.9100   57.5100 ca       214 PET     -0.163574
   4694 C2         29.0200   63.1200   56.8000 c        214 PET      0.825469
   4695 C3         30.0500   64.6900   55.3300 c3       214 PET      0.058627
   4696 C4         29.6300   65.9800   54.5700 c3       214 PET      0.058627
   4697 O1         23.4300   60.8300   59.1200 os       214 PET     -0.411922
   4698 O2         22.9100   63.0100   59.5000 o        214 PET     -0.591068
   4699 O3         29.8200   62.1500   56.4700 o        214 PET     -0.591068
   4700 O4         29.1000   64.3900   56.3200 os       214 PET     -0.411922
   4701 HA2        25.8600   60.3700   59.0200 ha       214 PET      0.129090
   4702 HA3        28.1400   60.8400   57.8200 ha       214 PET      0.145907
   4703 HA4        24.9300   64.5400   58.7300 ha       214 PET      0.145907
   4704 HA5        27.1100   65.0100   57.7600 ha       214 PET      0.129090
   4705 H31        30.9400   64.7700   55.9600 h1       214 PET      0.097188
   4706 H32        30.0000   63.9100   54.5600 h1       214 PET      0.097188
   4707 H41        28.5800   66.2100   54.7500 h1       214 PET      0.097188
   4708 H42        29.8400   65.9200   53.5000 h1       214 PET      0.097188
   4709 C1         30.1800   67.9000   56.0200 c        215 PET      0.825469
   4710 CA1        31.3200   68.8300   56.5200 ca       215 PET     -0.163574
   4711 CA2        32.6300   68.7500   55.9700 ca       215 PET     -0.108363
   4712 CA3        33.7000   69.5200   56.4500 ca       215 PET     -0.078542
   4713 CA4        31.2300   69.7800   57.5900 ca       215 PET     -0.078542
   4714 CA5        32.2600   70.6500   57.9800 ca       215 PET     -0.108363
   4715 CA6        33.5600   70.5000   57.5100 ca       215 PET     -0.163574
   4716 C2         34.6400   71.4300   58.1200 c        215 PET      0.825469
   4717 C3         37.0100   72.0400   58.3300 c3       215 PET      0.058627
   4718 C4         38.3500   71.7900   57.6300 c3       215 PET      0.058627
   4719 O1         30.5700   67.0400   55.0400 os       215 PET     -0.411922
   4720 O2         29.0700   67.9900   56.4300 o        215 PET     -0.591068
   4721 O3         34.3600   72.2800   58.9400 o        215 PET     -0.591068
   4722 O4         35.9300   71.2000   57.7100 os       215 PET     -0.411922
   4723 HA2        32.8400   68.0100   55.2000 ha       215 PET      0.129090
   4724 HA3        34.6700   69.3400   55.9900 ha       215 PET      0.145907
   4725 HA4        30.2500   69.9000   58.0500 ha       215 PET      0.145907
   4726 HA5        32.0100   71.4200   58.7100 ha       215 PET      0.129090
   4727 H31        36.8000   73.1100   58.2000 h1       215 PET      0.097188
   4728 H32        37.0300   71.9600   59.4200 h1       215 PET      0.097188
   4729 H41        39.0300   72.6100   57.9100 h1       215 PET      0.097188
   4730 H42        38.2400   71.9600   56.5600 h1       215 PET      0.097188
   4731 C1         39.2800   70.2000   59.2700 c        216 PET      0.825469
   4732 CA1        39.4300   68.7600   59.5100 ca       216 PET     -0.163574
   4733 CA2        38.8100   67.8400   58.6200 ca       216 PET     -0.108363
   4734 CA3        38.9300   66.4500   58.8700 ca       216 PET     -0.078542
   4735 CA4        40.1800   68.2300   60.6100 ca       216 PET     -0.078542
   4736 CA5        40.2300   66.8900   60.9500 ca       216 PET     -0.108363
   4737 CA6        39.6900   65.9800   60.0100 ca       216 PET     -0.163574
   4738 C2         39.5800   64.5100   60.3000 c        216 PET      0.825469
   4739 C3         39.2300   62.3500   59.2400 c3       216 PET      0.058627
   4740 C4         40.2500   61.5500   59.9800 c3       216 PET      0.058627
   4741 O1         38.7800   70.4300   58.0700 os       216 PET     -0.411922
   4742 O2         39.6400   71.1200   60.0100 o        216 PET     -0.591068
   4743 O3         39.4000   64.0300   61.4400 o        216 PET     -0.591068
   4744 O4         39.6400   63.7200   59.1500 os       216 PET     -0.411922
   4745 HA2        38.1300   68.2000   57.8500 ha       216 PET      0.129090
   4746 HA3        38.3600   65.6400   58.4300 ha       216 PET      0.145907
   4747 HA4        40.5500   68.9800   61.3000 ha       216 PET      0.145907
   4748 HA5        40.6700   66.5600   61.8900 ha       216 PET      0.129090
   4749 H31        38.1900   62.3000   59.5900 h1       216 PET      0.097188
   4750 H32        39.1500   62.0500   58.1900 h1       216 PET      0.097188
   4751 H41        39.6800   61.0000   60.7500 h1       216 PET      0.097188
   4752 H42        40.9900   62.2500   60.3800 h1       216 PET      0.097188
   4753 C1         40.3700   59.6300   58.5400 c        217 PET      0.825469
   4754 CA1        41.3500   58.6600   57.8900 ca       217 PET     -0.163574
   4755 CA2        42.7400   58.8000   58.0700 ca       217 PET     -0.108363
   4756 CA3        43.6800   57.8400   57.6000 ca       217 PET     -0.078542
   4757 CA4        40.9200   57.6000   57.0700 ca       217 PET     -0.078542
   4758 CA5        41.8300   56.7500   56.4900 ca       217 PET     -0.108363
   4759 CA6        43.2500   56.8200   56.7700 ca       217 PET     -0.163574
   4760 C2         44.2700   55.8600   56.0800 c        217 PET      0.825469
   4761 C3         46.6600   55.4700   55.8100 c3       217 PET      0.058627
   4762 C4         47.1600   56.6900   55.1100 c3       217 PET      0.058627
   4763 O1         40.9600   60.6900   59.0900 os       217 PET     -0.411922
   4764 O2         39.2400   59.3800   58.8100 o        217 PET     -0.591068
   4765 O3         43.9900   55.2600   55.0500 o        217 PET     -0.591068
   4766 O4         45.4900   55.9100   56.6400 os       217 PET     -0.411922
   4767 HA2        43.1600   59.4800   58.8100 ha       217 PET      0.129090
   4768 HA3        44.7300   57.9500   57.8300 ha       217 PET      0.145907
   4769 HA4        39.8700   57.3200   57.0700 ha       217 PET      0.145907
   4770 HA5        41.4600   55.8900   55.9300 ha       217 PET      0.129090
   4771 H31        47.4300   55.2400   56.5700 h1       217 PET      0.097188
   4772 H32        46.4000   54.6300   55.1500 h1       217 PET      0.097188
   4773 H41        46.6100   57.5600   55.4700 h1       217 PET      0.097188
   4774 H42        46.8100   56.4700   54.0900 h1       217 PET      0.097188
   4775 C1         49.0100   58.2000   55.0500 c        218 PET      0.825469
   4776 CA1        50.5200   58.3400   55.3000 ca       218 PET     -0.163574
   4777 CA2        51.3300   57.1600   55.3100 ca       218 PET     -0.108363
   4778 CA3        52.6900   57.3200   55.2100 ca       218 PET     -0.078542
   4779 CA4        51.0800   59.5900   55.3000 ca       218 PET     -0.078542
   4780 CA5        52.4600   59.6900   55.3000 ca       218 PET     -0.108363
   4781 CA6        53.2800   58.5800   55.1500 ca       218 PET     -0.163574
   4782 C2         54.8100   58.7100   55.0100 c        218 PET      0.825469
   4783 C3         56.8600   57.6800   55.7200 c3       218 PET      0.058627
   4784 C4         57.8600   58.3000   54.7800 c3       218 PET      0.058627
   4785 O1         48.5700   56.9200   55.2400 os       218 PET     -0.411922
   4786 O2         48.3100   59.1800   54.7600 o        218 PET     -0.591068
   4787 O3         55.3600   59.6800   54.6000 o        218 PET     -0.591068
   4788 O4         55.5200   57.6200   55.2200 os       218 PET     -0.411922
   4789 HA2        50.7900   56.2300   55.1600 ha       218 PET      0.129090
   4790 HA3        53.3200   56.4400   55.0900 ha       218 PET      0.145907
   4791 HA4        50.4300   60.4600   55.3600 ha       218 PET      0.145907
   4792 HA5        52.9800   60.6500   55.3700 ha       218 PET      0.129090
   4793 H31        56.7800   58.1800   56.6900 h1       218 PET      0.097188
   4794 H32        57.1900   56.6400   55.8400 h1       218 PET      0.097188
   4795 H41        57.7300   59.3900   54.8300 h1       218 PET      0.097188
   4796 H42        57.7300   57.8900   53.7700 h1       218 PET      0.097188
   4797 C1         59.7600   56.8900   55.1700 c        219 PET      0.825469
   4798 CA1        61.2300   56.9000   55.3400 ca       219 PET     -0.163574
   4799 CA2        62.0500   55.7200   55.2400 ca       219 PET     -0.108363
   4800 CA3        63.4200   55.7700   55.0600 ca       219 PET     -0.078542
   4801 CA4        61.9100   58.1200   55.3700 ca       219 PET     -0.078542
   4802 CA5        63.3700   58.2000   55.4000 ca       219 PET     -0.108363
   4803 CA6        64.1100   56.9900   55.2000 ca       219 PET     -0.163574
   4804 C2         65.6100   56.9400   55.2500 c        219 PET      0.825469
   4805 C3         67.7100   58.0000   55.5700 c3       219 PET      0.058627
   4806 C4         68.0800   57.4200   56.9100 c3       219 PET      0.058627
   4807 O1         59.2000   58.1000   55.1700 os       219 PET     -0.411922
   4808 O2         59.1600   55.8300   55.0200 o        219 PET     -0.591068
   4809 O3         66.2200   55.8600   55.0100 o        219 PET     -0.591068
   4810 O4         66.3000   58.0600   55.4300 os       219 PET     -0.411922
   4811 HA2        61.5500   54.7800   55.0300 ha       219 PET      0.129090
   4812 HA3        63.9200   54.8300   54.8300 ha       219 PET      0.145907
   4813 HA4        61.3700   59.0500   55.5500 ha       219 PET      0.145907
   4814 HA5        64.0200   59.0700   55.4600 ha       219 PET      0.129090
   4815 H31        68.2100   57.4600   54.7600 h1       219 PET      0.097188
   4816 H32        68.1200   59.0200   55.4700 h1       219 PET      0.097188
   4817 H41        67.9400   56.3400   56.8900 h1       219 PET      0.097188
   4818 H42        67.3900   57.7600   57.6900 h1       219 PET      0.097188
   4819 C1         69.9400   58.7900   57.7100 c        220 PET      0.825469
   4820 CA1        71.4100   58.7800   57.5500 ca       220 PET     -0.163574
   4821 CA2        72.1300   58.1500   56.5100 ca       220 PET     -0.108363
   4822 CA3        73.5200   58.3200   56.3500 ca       220 PET     -0.078542
   4823 CA4        72.1800   59.3800   58.5700 ca       220 PET     -0.078542
   4824 CA5        73.5600   59.3700   58.6200 ca       220 PET     -0.108363
   4825 CA6        74.2900   58.9300   57.4300 ca       220 PET     -0.163574
   4826 C2         75.7800   58.8200   57.4800 c        220 PET      0.825469
   4827 C3         77.8400   59.6700   58.5700 c3       220 PET      0.058627
   4828 C4         78.4200   60.5700   57.4500 c3       220 PET      0.058627
   4829 O1         69.4700   57.6500   57.1500 os       220 PET     -0.411922
   4830 O2         69.2400   59.7200   58.2200 o        220 PET     -0.591068
   4831 O3         76.4400   58.0500   56.8400 o        220 PET     -0.591068
   4832 O4         76.3900   59.5900   58.4400 os       220 PET     -0.411922
   4833 HA2        71.6000   57.6700   55.6900 ha       220 PET      0.129090
   4834 HA3        74.0800   57.8900   55.5200 ha       220 PET      0.145907
   4835 HA4        71.6800   59.7500   59.4600 ha       220 PET      0.145907
   4836 HA5        74.0400   59.8600   59.4700 ha       220 PET      0.129090
   4837 H31        78.0600   60.1900   59.5100 h1       220 PET      0.097188
   4838 H32        78.3400   58.6900   58.6000 h1       220 PET      0.097188
   4839 H41        77.7000   61.3900   57.3600 h1       220 PET      0.097188
   4840 H42        78.4300   59.9800   56.5300 h1       220 PET      0.097188
   4841 C1         -0.1200   62.3100   58.5200 c        221 PET      0.825469
   4842 CA1         1.1500   63.1300   58.3700 ca       221 PET     -0.163574
   4843 CA2         1.4300   64.2700   59.1900 ca       221 PET     -0.108363
   4844 CA3         2.7500   64.7600   59.2900 ca       221 PET     -0.078542
   4845 CA4         2.2600   62.6200   57.6600 ca       221 PET     -0.078542
   4846 CA5         3.5200   63.1600   57.6800 ca       221 PET     -0.108363
   4847 CA6         3.8200   64.2500   58.5600 ca       221 PET     -0.163574
   4848 C2          5.3100   64.7300   58.8400 c        221 PET      0.825469
   4849 C3          7.6500   64.3800   58.3300 c3       221 PET      0.058627
   4850 C4          8.1600   64.2600   59.7700 c3       221 PET      0.058627
   4851 O1         -0.2000   61.1400   57.7900 os       221 PET     -0.411922
   4852 O2         -1.0500   62.7600   59.1800 o        221 PET     -0.591068
   4853 O3          5.5100   65.6800   59.5200 o        221 PET     -0.591068
   4854 O4          6.2800   63.8300   58.3400 os       221 PET     -0.411922
   4855 HA2         0.6700   64.6500   59.8700 ha       221 PET      0.129090
   4856 HA3         2.9400   65.5500   60.0200 ha       221 PET      0.145907
   4857 HA4         2.1700   61.7400   57.0200 ha       221 PET      0.145907
   4858 HA5         4.3000   62.7200   57.0700 ha       221 PET      0.129090
   4859 H31         8.2500   63.8200   57.5900 h1       221 PET      0.097188
   4860 H32         7.5500   65.4100   57.9600 h1       221 PET      0.097188
   4861 H41         7.3600   64.3900   60.5000 h1       221 PET      0.097188
   4862 H42         8.9300   65.0300   59.8900 h1       221 PET      0.097188
   4863 C1          8.1400   61.8300   60.1300 c        222 PET      0.825469
   4864 CA1         8.9700   60.6000   60.4100 ca       222 PET     -0.163574
   4865 CA2        10.2200   60.4700   59.8000 ca       222 PET     -0.108363
   4866 CA3        10.9200   59.3000   59.9600 ca       222 PET     -0.078542
   4867 CA4         8.4700   59.4900   61.1200 ca       222 PET     -0.078542
   4868 CA5         9.1600   58.2700   61.2400 ca       222 PET     -0.108363
   4869 CA6        10.3800   58.1700   60.6300 ca       222 PET     -0.163574
   4870 C2         11.2100   56.9000   60.7900 c        222 PET      0.825469
   4871 C3         13.4800   55.9200   60.3400 c3       222 PET      0.058627
   4872 C4         13.0800   54.6900   59.6200 c3       222 PET      0.058627
   4873 O1          8.8000   62.9600   59.8200 os       222 PET     -0.411922
   4874 O2          6.9500   61.9400   60.4200 o        222 PET     -0.591068
   4875 O3         10.6900   55.8900   61.1700 o        222 PET     -0.591068
   4876 O4         12.5000   56.9800   60.2300 os       222 PET     -0.411922
   4877 HA2        10.7100   61.2700   59.2500 ha       222 PET      0.129090
   4878 HA3        11.9700   59.2500   59.6900 ha       222 PET      0.145907
   4879 HA4         7.5700   59.6700   61.6900 ha       222 PET      0.145907
   4880 HA5         8.8000   57.4600   61.8700 ha       222 PET      0.129090
   4881 H31        14.4600   56.2500   59.9800 h1       222 PET      0.097188
   4882 H32        13.5500   55.7700   61.4300 h1       222 PET      0.097188
   4883 H41        12.3900   54.9600   58.8100 h1       222 PET      0.097188
   4884 H42        12.5200   54.0500   60.3100 h1       222 PET      0.097188
   4885 C1         13.9600   52.7000   58.5300 c        223 PET      0.825469
   4886 CA1        15.2200   51.8800   58.5600 ca       223 PET     -0.163574
   4887 CA2        16.4600   52.3700   58.6300 ca       223 PET     -0.108363
   4888 CA3        17.6000   51.5700   58.4100 ca       223 PET     -0.078542
   4889 CA4        15.1300   50.5000   58.2100 ca       223 PET     -0.078542
   4890 CA5        16.2100   49.6800   58.0600 ca       223 PET     -0.108363
   4891 CA6        17.4600   50.1600   58.1200 ca       223 PET     -0.163574
   4892 C2         18.6800   49.2100   58.0900 c        223 PET      0.825469
   4893 C3         21.0900   48.9800   57.7600 c3       223 PET      0.058627
   4894 C4         21.6600   49.0200   59.1800 c3       223 PET      0.058627
   4895 O1         14.2200   53.9700   59.1500 os       223 PET     -0.411922
   4896 O2         12.8900   52.4200   58.1100 o        223 PET     -0.591068
   4897 O3         18.5700   47.9900   58.2000 o        223 PET     -0.591068
   4898 O4         19.9000   49.8100   57.8000 os       223 PET     -0.411922
   4899 HA2        16.6900   53.3400   59.0700 ha       223 PET      0.129090
   4900 HA3        18.6000   51.8600   58.7100 ha       223 PET      0.145907
   4901 HA4        14.1300   50.1100   58.0100 ha       223 PET      0.145907
   4902 HA5        16.1900   48.6100   57.8600 ha       223 PET      0.129090
   4903 H31        20.8600   47.9700   57.4100 h1       223 PET      0.097188
   4904 H32        21.7900   49.4100   57.0300 h1       223 PET      0.097188
   4905 H41        22.2500   48.1300   59.4500 h1       223 PET      0.097188
   4906 H42        20.8100   49.0800   59.8700 h1       223 PET      0.097188
   4907 C1         23.8000   49.9900   58.8800 c        224 PET      0.825469
   4908 CA1        24.5000   51.3200   58.5900 ca       224 PET     -0.163574
   4909 CA2        25.8300   51.4500   59.0400 ca       224 PET     -0.108363
   4910 CA3        26.6100   52.5900   58.6900 ca       224 PET     -0.078542
   4911 CA4        23.7900   52.4100   58.0900 ca       224 PET     -0.078542
   4912 CA5        24.5700   53.5500   57.7800 ca       224 PET     -0.108363
   4913 CA6        25.9700   53.6500   58.0500 ca       224 PET     -0.163574
   4914 C2         26.9000   54.8500   57.7500 c        224 PET      0.825469
   4915 C3         26.6800   57.2400   57.1200 c3       224 PET      0.058627
   4916 C4         27.0700   57.0400   55.6500 c3       224 PET      0.058627
   4917 O1         22.4600   50.2200   59.1800 os       224 PET     -0.411922
   4918 O2         24.3300   48.8800   58.9900 o        224 PET     -0.591068
   4919 O3         28.0900   54.8600   57.9000 o        224 PET     -0.591068
   4920 O4         26.1100   55.9400   57.5100 os       224 PET     -0.411922
   4921 HA2        26.2900   50.6300   59.5700 ha       224 PET      0.129090
   4922 HA3        27.6900   52.6200   58.7900 ha       224 PET      0.145907
   4923 HA4        22.7300   52.3500   57.8700 ha       224 PET      0.145907
   4924 HA5        24.1000   54.4100   57.3100 ha       224 PET      0.129090
   4925 H31        25.9900   58.0900   57.1700 h1       224 PET      0.097188
   4926 H32        27.5500   57.5200   57.7200 h1       224 PET      0.097188
   4927 H41        26.6900   57.8800   55.0500 h1       224 PET      0.097188
   4928 H42        26.7000   56.1400   55.1500 h1       224 PET      0.097188
   4929 C1         29.1500   58.2300   55.8900 c        225 PET      0.825469
   4930 CA1        30.6300   58.2200   56.0300 ca       225 PET     -0.163574
   4931 CA2        31.2500   59.2300   56.7500 ca       225 PET     -0.108363
   4932 CA3        32.6200   59.2400   57.0300 ca       225 PET     -0.078542
   4933 CA4        31.4600   57.2100   55.5400 ca       225 PET     -0.078542
   4934 CA5        32.9000   57.2500   55.7000 ca       225 PET     -0.108363
   4935 CA6        33.4600   58.3000   56.4400 ca       225 PET     -0.163574
   4936 C2         34.9500   58.4000   56.4500 c        225 PET      0.825469
   4937 C3         36.8400   59.8800   57.0600 c3       225 PET      0.058627
   4938 C4         37.8600   59.6300   55.8700 c3       225 PET      0.058627
   4939 O1         28.5100   57.0700   55.5200 os       225 PET     -0.411922
   4940 O2         28.4600   59.2700   56.0100 o        225 PET     -0.591068
   4941 O3         35.6700   57.4300   56.4000 o        225 PET     -0.591068
   4942 O4         35.4400   59.6600   56.6500 os       225 PET     -0.411922
   4943 HA2        30.6200   59.9800   57.2100 ha       225 PET      0.129090
   4944 HA3        32.9600   60.1300   57.5500 ha       225 PET      0.145907
   4945 HA4        30.9500   56.3700   55.0700 ha       225 PET      0.145907
   4946 HA5        33.4600   56.4100   55.2900 ha       225 PET      0.129090
   4947 H31        36.9300   60.9100   57.4200 h1       225 PET      0.097188
   4948 H32        37.0200   59.1700   57.8700 h1       225 PET      0.097188
   4949 H41        37.2700   59.8600   54.9800 h1       225 PET      0.097188
   4950 H42        38.0300   58.5400   55.9400 h1       225 PET      0.097188
   4951 C1         40.2200   60.0500   55.2500 c        226 PET      0.825469
   4952 CA1        41.4400   60.9000   55.3000 ca       226 PET     -0.163574
   4953 CA2        42.7300   60.3600   55.1900 ca       226 PET     -0.108363
   4954 CA3        43.8100   61.3500   55.1900 ca       226 PET     -0.078542
   4955 CA4        41.2100   62.3200   55.5900 ca       226 PET     -0.078542
   4956 CA5        42.3100   63.2200   55.7100 ca       226 PET     -0.108363
   4957 CA6        43.6100   62.7500   55.5900 ca       226 PET     -0.163574
   4958 C2         44.8300   63.6400   55.5800 c        226 PET      0.825469
   4959 C3         47.1600   63.6300   55.4200 c3       226 PET      0.058627
   4960 C4         48.3500   62.6200   55.6400 c3       226 PET      0.058627
   4961 O1         39.0700   60.4500   55.9400 os       226 PET     -0.411922
   4962 O2         40.2300   59.0400   54.5600 o        226 PET     -0.591068
   4963 O3         44.7300   64.8200   55.2000 o        226 PET     -0.591068
   4964 O4         46.0000   62.9400   55.7600 os       226 PET     -0.411922
   4965 HA2        42.9000   59.3100   54.9900 ha       226 PET      0.129090
   4966 HA3        44.8300   61.1800   54.8600 ha       226 PET      0.145907
   4967 HA4        40.2100   62.7500   55.5600 ha       226 PET      0.145907
   4968 HA5        42.1200   64.2800   55.8500 ha       226 PET      0.129090
   4969 H31        47.0900   63.9400   54.3700 h1       226 PET      0.097188
   4970 H32        47.2300   64.5400   56.0200 h1       226 PET      0.097188
   4971 H41        48.0800   61.6700   55.1600 h1       226 PET      0.097188
   4972 H42        48.4200   62.4600   56.7300 h1       226 PET      0.097188
   4973 C1         50.1200   64.3700   55.1100 c        227 PET      0.825469
   4974 CA1        51.6100   64.6100   55.0700 ca       227 PET     -0.163574
   4975 CA2        52.1800   65.8700   55.1400 ca       227 PET     -0.108363
   4976 CA3        53.5900   66.0800   55.1400 ca       227 PET     -0.078542
   4977 CA4        52.4800   63.5700   55.1100 ca       227 PET     -0.078542
   4978 CA5        53.9000   63.7300   55.1600 ca       227 PET     -0.108363
   4979 CA6        54.4700   64.9700   55.1600 ca       227 PET     -0.163574
   4980 C2         55.9700   65.2400   55.3400 c        227 PET      0.825469
   4981 C3         58.0000   64.2200   55.9700 c3       227 PET      0.058627
   4982 C4         58.7500   62.9500   55.5000 c3       227 PET      0.058627
   4983 O1         49.6900   63.0700   55.1600 os       227 PET     -0.411922
   4984 O2         49.3000   65.2900   55.1100 o        227 PET     -0.591068
   4985 O3         56.4500   66.3800   55.4300 o        227 PET     -0.591068
   4986 O4         56.7000   64.0800   55.4500 os       227 PET     -0.411922
   4987 HA2        51.5000   66.7100   55.0100 ha       227 PET      0.129090
   4988 HA3        53.9700   67.1000   55.2200 ha       227 PET      0.145907
   4989 HA4        52.0400   62.5900   55.2700 ha       227 PET      0.145907
   4990 HA5        54.4800   62.8200   55.2600 ha       227 PET      0.129090
   4991 H31        58.5200   65.0300   55.4400 h1       227 PET      0.097188
   4992 H32        58.0500   64.3500   57.0500 h1       227 PET      0.097188
   4993 H41        58.3200   62.5700   54.5600 h1       227 PET      0.097188
   4994 H42        58.7900   62.2000   56.3000 h1       227 PET      0.097188
   4995 C1         61.0600   62.3600   54.9800 c        228 PET      0.825469
   4996 CA1        62.5400   62.8000   55.0400 ca       228 PET     -0.163574
   4997 CA2        62.9100   64.1800   55.1200 ca       228 PET     -0.108363
   4998 CA3        64.2100   64.5800   55.1800 ca       228 PET     -0.078542
   4999 CA4        63.6300   61.9000   54.8900 ca       228 PET     -0.078542
   5000 CA5        64.9400   62.3500   54.8600 ca       228 PET     -0.108363
   5001 CA6        65.2900   63.6900   55.1000 ca       228 PET     -0.163574
   5002 C2         66.7800   64.1400   55.1800 c        228 PET      0.825469
   5003 C3         69.0500   63.6900   55.6500 c3       228 PET      0.058627
   5004 C4         69.7600   62.5200   56.4500 c3       228 PET      0.058627
   5005 O1         60.1700   63.3500   55.4200 os       228 PET     -0.411922
   5006 O2         60.7000   61.2400   54.6500 o        228 PET     -0.591068
   5007 O3         67.1600   65.2600   54.8800 o        228 PET     -0.591068
   5008 O4         67.7000   63.2000   55.4000 os       228 PET     -0.411922
   5009 HA2        62.1500   64.9500   55.1900 ha       228 PET      0.129090
   5010 HA3        64.4300   65.6300   55.3300 ha       228 PET      0.145907
   5011 HA4        63.2700   60.9000   54.6800 ha       228 PET      0.145907
   5012 HA5        65.7400   61.6400   54.6500 ha       228 PET      0.129090
   5013 H31        69.5300   63.8300   54.6700 h1       228 PET      0.097188
   5014 H32        69.0600   64.5800   56.3000 h1       228 PET      0.097188
   5015 H41        69.2500   61.6300   56.0700 h1       228 PET      0.097188
   5016 H42        69.5700   62.6800   57.5200 h1       228 PET      0.097188
   5017 C1         71.9600   63.6000   56.0400 c        229 PET      0.825469
   5018 CA1        73.4500   63.2500   55.9100 ca       229 PET     -0.163574
   5019 CA2        74.3400   64.3000   55.8200 ca       229 PET     -0.108363
   5020 CA3        75.6800   64.0300   55.4900 ca       229 PET     -0.078542
   5021 CA4        73.9300   61.9300   55.8200 ca       229 PET     -0.078542
   5022 CA5        75.2100   61.6800   55.4200 ca       229 PET     -0.108363
   5023 CA6        76.1000   62.7600   55.2700 ca       229 PET     -0.163574
   5024 C2         77.5600   62.5100   55.0000 c        229 PET      0.825469
   5025 C3         79.7200   63.5100   54.9400 c3       229 PET      0.058627
   5026 C4         80.1400   64.7500   55.5900 c3       229 PET      0.058627
   5027 O1         71.2000   62.4800   56.2100 os       229 PET     -0.411922
   5028 O2         71.5600   64.7400   56.0500 o        229 PET     -0.591068
   5029 O3         78.0100   61.4100   54.8300 o        229 PET     -0.591068
   5030 O4         78.3300   63.6100   54.9300 os       229 PET     -0.411922
   5031 HA2        74.0000   65.3300   55.8900 ha       229 PET      0.129090
   5032 HA3        76.3500   64.8800   55.3800 ha       229 PET      0.145907
   5033 HA4        73.2900   61.0600   55.8900 ha       229 PET      0.145907
   5034 HA5        75.5500   60.6600   55.3400 ha       229 PET      0.129090
   5035 H31        80.2400   62.6600   55.4000 h1       229 PET      0.097188
   5036 H32        80.1600   63.4800   53.9400 h1       229 PET      0.097188
   5037 H41        79.9600   64.7300   56.6700 h1       229 PET      0.097188
   5038 H42        79.5600   65.6000   55.2300 h1       229 PET      0.097188
   5039 C1          2.1400   65.8700   56.0700 c        230 PET      0.825469
   5040 CA1         3.5700   66.0500   55.8500 ca       230 PET     -0.163574
   5041 CA2         4.2600   65.1700   54.9400 ca       230 PET     -0.108363
   5042 CA3         5.6800   65.3100   54.8600 ca       230 PET     -0.078542
   5043 CA4         4.2200   67.1300   56.4700 ca       230 PET     -0.078542
   5044 CA5         5.6100   67.2900   56.3700 ca       230 PET     -0.108363
   5045 CA6         6.3500   66.4300   55.4800 ca       230 PET     -0.163574
   5046 C2          7.8600   66.5700   55.5100 c        230 PET      0.825469
   5047 C3          9.8300   65.2900   55.4200 c3       230 PET      0.058627
   5048 C4         10.4900   65.5900   56.7700 c3       230 PET      0.058627
   5049 O1          1.5700   64.9000   55.2600 os       230 PET     -0.411922
   5050 O2          1.5400   66.4100   56.9900 o        230 PET     -0.591068
   5051 O3          8.4400   67.6500   55.5900 o        230 PET     -0.591068
   5052 O4          8.4200   65.3800   55.5800 os       230 PET     -0.411922
   5053 HA2         3.7600   64.3400   54.4700 ha       230 PET      0.129090
   5054 HA3         6.2400   64.6600   54.2000 ha       230 PET      0.145907
   5055 HA4         3.6500   67.7900   57.1200 ha       230 PET      0.145907
   5056 HA5         6.1000   68.0600   56.9600 ha       230 PET      0.129090
   5057 H31        10.0500   64.2500   55.1100 h1       230 PET      0.097188
   5058 H32        10.2700   66.0200   54.7300 h1       230 PET      0.097188
   5059 H41         9.8500   65.2700   57.5900 h1       230 PET      0.097188
   5060 H42        10.5300   66.6800   56.8800 h1       230 PET      0.097188
   5061 C1         12.0800   63.7700   57.0600 c        231 PET      0.825469
   5062 CA1        13.5300   63.5900   57.3900 ca       231 PET     -0.163574
   5063 CA2        14.4100   64.6500   57.6400 ca       231 PET     -0.108363
   5064 CA3        15.7400   64.5000   58.1100 ca       231 PET     -0.078542
   5065 CA4        13.9800   62.2500   57.6800 ca       231 PET     -0.078542
   5066 CA5        15.3000   62.0900   58.1700 ca       231 PET     -0.108363
   5067 CA6        16.1800   63.2100   58.3200 ca       231 PET     -0.163574
   5068 C2         17.7000   63.0300   58.6100 c        231 PET      0.825469
   5069 C3         19.6500   64.2600   59.4000 c3       231 PET      0.058627
   5070 C4         20.3500   64.4800   57.9400 c3       231 PET      0.058627
   5071 O1         11.8100   65.0900   56.8500 os       231 PET     -0.411922
   5072 O2         11.2100   62.9200   57.1700 o        231 PET     -0.591068
   5073 O3         18.3300   62.0600   58.2600 o        231 PET     -0.591068
   5074 O4         18.2600   64.1300   59.1900 os       231 PET     -0.411922
   5075 HA2        13.9800   65.6300   57.4800 ha       231 PET      0.129090
   5076 HA3        16.2000   65.4100   58.4800 ha       231 PET      0.145907
   5077 HA4        13.3300   61.3900   57.5300 ha       231 PET      0.145907
   5078 HA5        15.5700   61.0500   58.3000 ha       231 PET      0.129090
   5079 H31        19.8800   65.1300   60.0300 h1       231 PET      0.097188
   5080 H32        19.9800   63.3100   59.8400 h1       231 PET      0.097188
   5081 H41        20.1000   63.6100   57.3300 h1       231 PET      0.097188
   5082 H42        21.4400   64.4600   58.0500 h1       231 PET      0.097188
   5083 C1         20.8900   66.6400   56.8800 c        232 PET      0.825469
   5084 CA1        20.3100   67.9500   56.3800 ca       232 PET     -0.163574
   5085 CA2        21.1800   68.9200   55.7400 ca       232 PET     -0.108363
   5086 CA3        20.6400   70.0300   55.1600 ca       232 PET     -0.078542
   5087 CA4        18.9200   68.2900   56.5200 ca       232 PET     -0.078542
   5088 CA5        18.3800   69.4300   55.8800 ca       232 PET     -0.108363
   5089 CA6        19.2400   70.1900   55.1100 ca       232 PET     -0.163574
   5090 C2         18.7100   71.2600   54.1700 c        232 PET      0.825469
   5091 C3         19.0000   72.5000   52.0800 c3       232 PET      0.058627
   5092 C4         18.6400   73.9000   52.5700 c3       232 PET      0.058627
   5093 O1         19.9100   65.8000   57.4400 os       232 PET     -0.411922
   5094 O2         22.0500   66.3600   56.7900 o        232 PET     -0.591068
   5095 O3         17.5400   71.6000   54.2400 o        232 PET     -0.591068
   5096 O4         19.5200   71.6300   53.1200 os       232 PET     -0.411922
   5097 HA2        22.2400   68.7000   55.6700 ha       232 PET      0.129090
   5098 HA3        21.2800   70.6200   54.5100 ha       232 PET      0.145907
   5099 HA4        18.3300   67.6400   57.1500 ha       232 PET      0.145907
   5100 HA5        17.3400   69.7000   56.0900 ha       232 PET      0.129090
   5101 H31        19.6000   72.5100   51.1600 h1       232 PET      0.097188
   5102 H32        18.0800   72.0500   51.6700 h1       232 PET      0.097188
   5103 H41        17.8400   73.9900   53.3100 h1       232 PET      0.097188
   5104 H42        18.1900   74.4200   51.7200 h1       232 PET      0.097188
   5105 C1         20.7900   75.1300   52.2500 c        233 PET      0.825469
   5106 CA1        22.1000   75.5100   52.9600 ca       233 PET     -0.163574
   5107 CA2        22.9500   76.5200   52.4100 ca       233 PET     -0.108363
   5108 CA3        24.0300   77.0700   53.1500 ca       233 PET     -0.078542
   5109 CA4        22.3300   75.0400   54.2400 ca       233 PET     -0.078542
   5110 CA5        23.4400   75.6000   54.9700 ca       233 PET     -0.108363
   5111 CA6        24.3200   76.5800   54.4500 ca       233 PET     -0.163574
   5112 C2         25.5200   77.0600   55.2800 c        233 PET      0.825469
   5113 C3         27.6600   78.1700   54.9400 c3       233 PET      0.058627
   5114 C4         28.3500   78.7300   53.6800 c3       233 PET      0.058627
   5115 O1         19.8200   74.5800   53.1200 os       233 PET     -0.411922
   5116 O2         20.6500   75.2500   51.0900 o        233 PET     -0.591068
   5117 O3         25.5400   77.1600   56.4700 o        233 PET     -0.591068
   5118 O4         26.5000   77.5300   54.4500 os       233 PET     -0.411922
   5119 HA2        22.6900   76.9400   51.4400 ha       233 PET      0.129090
   5120 HA3        24.7300   77.7500   52.6800 ha       233 PET      0.145907
   5121 HA4        21.7300   74.2700   54.7000 ha       233 PET      0.145907
   5122 HA5        23.6200   75.3100   56.0000 ha       233 PET      0.129090
   5123 H31        27.3300   78.9600   55.6200 h1       233 PET      0.097188
   5124 H32        28.2500   77.4500   55.5300 h1       233 PET      0.097188
   5125 H41        28.5000   79.8000   53.8900 h1       233 PET      0.097188
   5126 H42        27.8000   78.8200   52.7400 h1       233 PET      0.097188
   5127 C1         29.6000   76.8700   52.7500 c        234 PET      0.825469
   5128 CA1        30.9300   76.2100   52.7800 ca       234 PET     -0.163574
   5129 CA2        31.1500   74.9700   52.1100 ca       234 PET     -0.108363
   5130 CA3        32.4100   74.3800   51.9900 ca       234 PET     -0.078542
   5131 CA4        31.9700   76.8600   53.3400 ca       234 PET     -0.078542
   5132 CA5        33.2300   76.3100   53.2400 ca       234 PET     -0.108363
   5133 CA6        33.4900   75.0400   52.6200 ca       234 PET     -0.163574
   5134 C2         34.8800   74.5400   52.4700 c        234 PET      0.825469
   5135 C3         37.0700   75.1000   53.0500 c3       234 PET      0.058627
   5136 C4         37.2700   75.9700   51.8400 c3       234 PET      0.058627
   5137 O1         29.6000   78.0400   53.5100 os       234 PET     -0.411922
   5138 O2         28.6500   76.4100   52.1400 o        234 PET     -0.591068
   5139 O3         35.2400   73.8000   51.5100 o        234 PET     -0.591068
   5140 O4         35.6700   75.0600   53.4100 os       234 PET     -0.411922
   5141 HA2        30.2900   74.4300   51.7300 ha       234 PET      0.129090
   5142 HA3        32.5200   73.3900   51.5500 ha       234 PET      0.145907
   5143 HA4        31.8600   77.7700   53.9300 ha       234 PET      0.145907
   5144 HA5        34.1300   76.8400   53.5400 ha       234 PET      0.129090
   5145 H31        37.7200   75.4000   53.8800 h1       234 PET      0.097188
   5146 H32        37.4100   74.0800   52.8200 h1       234 PET      0.097188
   5147 H41        37.0900   75.3700   50.9300 h1       234 PET      0.097188
   5148 H42        38.3500   76.1400   51.7700 h1       234 PET      0.097188
   5149 C1         36.7600   78.2500   52.4400 c        235 PET      0.825469
   5150 CA1        35.6600   79.3100   52.4400 ca       235 PET     -0.163574
   5151 CA2        35.9000   80.6100   52.9100 ca       235 PET     -0.108363
   5152 CA3        34.9100   81.5800   53.0000 ca       235 PET     -0.078542
   5153 CA4        34.2900   78.9500   52.0000 ca       235 PET     -0.078542
   5154 CA5        33.3000   79.9500   52.1400 ca       235 PET     -0.108363
   5155 CA6        33.5600   81.3000   52.5400 ca       235 PET     -0.163574
   5156 C2         32.4900   82.4100   52.5300 c        235 PET      0.825469
   5157 C3         30.1300   82.6500   51.8200 c3       235 PET      0.058627
   5158 C4         29.4600   83.1500   53.0800 c3       235 PET      0.058627
   5159 O1         36.3100   77.0600   51.8600 os       235 PET     -0.411922
   5160 O2         37.9100   78.4000   52.8500 o        235 PET     -0.591068
   5161 O3         32.6000   83.5700   52.8600 o        235 PET     -0.591068
   5162 O4         31.3500   81.8500   52.0600 os       235 PET     -0.411922
   5163 HA2        36.8800   80.8400   53.3100 ha       235 PET      0.129090
   5164 HA3        35.1200   82.5900   53.3300 ha       235 PET      0.145907
   5165 HA4        34.0800   77.9900   51.5200 ha       235 PET      0.145907
   5166 HA5        32.3100   79.6900   51.7800 ha       235 PET      0.129090
   5167 H31        30.3900   83.6000   51.3200 h1       235 PET      0.097188
   5168 H32        29.3800   82.2000   51.1500 h1       235 PET      0.097188
   5169 H41        29.0100   84.1400   52.9200 h1       235 PET      0.097188
   5170 H42        30.2100   83.2900   53.8800 h1       235 PET      0.097188
   5171 C1         27.2300   82.0400   53.2600 c        236 PET      0.825469
   5172 CA1        26.2800   81.3700   54.2500 ca       236 PET     -0.163574
   5173 CA2        26.3000   81.6400   55.6500 ca       236 PET     -0.108363
   5174 CA3        25.2100   81.3600   56.5100 ca       236 PET     -0.078542
   5175 CA4        25.2200   80.5600   53.8600 ca       236 PET     -0.078542
   5176 CA5        24.1400   80.1700   54.6800 ca       236 PET     -0.108363
   5177 CA6        24.1300   80.6100   56.0300 ca       236 PET     -0.163574
   5178 C2         22.9100   80.2800   56.9600 c        236 PET      0.825469
   5179 C3         21.4700   81.1400   58.6200 c3       236 PET      0.058627
   5180 C4         21.8800   81.8800   59.9300 c3       236 PET      0.058627
   5181 O1         28.5100   82.2100   53.6800 os       236 PET     -0.411922
   5182 O2         26.8000   82.5200   52.1800 o        236 PET     -0.591068
   5183 O3         22.2900   79.2300   56.8900 o        236 PET     -0.591068
   5184 O4         22.5600   81.3600   57.7100 os       236 PET     -0.411922
   5185 HA2        27.1100   82.2600   56.0300 ha       236 PET      0.129090
   5186 HA3        25.2300   81.7700   57.5200 ha       236 PET      0.145907
   5187 HA4        25.1000   80.2300   52.8400 ha       236 PET      0.145907
   5188 HA5        23.2900   79.6000   54.3200 ha       236 PET      0.129090
   5189 H31        20.5100   81.4600   58.1800 h1       236 PET      0.097188
   5190 H32        21.3300   80.0900   58.9200 h1       236 PET      0.097188
   5191 H41        21.3300   81.4000   60.7600 h1       236 PET      0.097188
   5192 H42        21.7500   82.9700   59.9700 h1       236 PET      0.097188
   5193 C1         23.7500   80.3800   60.4100 c        237 PET      0.825469
   5194 CA1        25.2300   80.1800   60.0000 ca       237 PET     -0.163574
   5195 CA2        25.6000   78.9500   59.3900 ca       237 PET     -0.108363
   5196 CA3        26.8800   78.8400   58.8000 ca       237 PET     -0.078542
   5197 CA4        26.1700   81.2500   60.0100 ca       237 PET     -0.078542
   5198 CA5        27.4800   81.1100   59.4200 ca       237 PET     -0.108363
   5199 CA6        27.8000   79.9200   58.8500 ca       237 PET     -0.163574
   5200 C2         29.1400   79.7300   58.0900 c        237 PET      0.825469
   5201 C3         31.1000   81.0900   57.2200 c3       237 PET      0.058627
   5202 C4         31.2200   80.3600   55.8400 c3       237 PET      0.058627
   5203 O1         23.2600   81.6400   60.1800 os       237 PET     -0.411922
   5204 O2         23.0400   79.4600   60.7700 o        237 PET     -0.591068
   5205 O3         29.5000   78.6500   57.5600 o        237 PET     -0.591068
   5206 O4         29.7700   80.9100   57.8900 os       237 PET     -0.411922
   5207 HA2        24.8600   78.1900   59.1800 ha       237 PET      0.129090
   5208 HA3        27.0700   77.9100   58.2800 ha       237 PET      0.145907
   5209 HA4        25.8500   82.2300   60.3700 ha       237 PET      0.145907
   5210 HA5        28.1000   82.0000   59.5000 ha       237 PET      0.129090
   5211 H31        31.1800   82.1600   57.0100 h1       237 PET      0.097188
   5212 H32        31.9300   80.8600   57.9000 h1       237 PET      0.097188
   5213 H41        31.3200   81.1000   55.0400 h1       237 PET      0.097188
   5214 H42        30.2900   79.8000   55.7300 h1       237 PET      0.097188
   5215 C1         33.5900   79.8400   55.9200 c        238 PET      0.825469
   5216 CA1        34.7200   78.8500   56.0700 ca       238 PET     -0.163574
   5217 CA2        36.0400   79.2400   55.9800 ca       238 PET     -0.108363
   5218 CA3        37.1200   78.4200   56.2300 ca       238 PET     -0.078542
   5219 CA4        34.5300   77.4700   56.4700 ca       238 PET     -0.078542
   5220 CA5        35.6700   76.5200   56.6300 ca       238 PET     -0.108363
   5221 CA6        36.9400   77.0600   56.4600 ca       238 PET     -0.163574
   5222 C2         38.1900   76.1300   56.6200 c        238 PET      0.825469
   5223 C3         40.4800   76.1500   57.1100 c3       238 PET      0.058627
   5224 C4         40.4300   76.0600   58.6600 c3       238 PET      0.058627
   5225 O1         32.3100   79.3600   55.8600 os       238 PET     -0.411922
   5226 O2         33.8400   81.0900   55.8800 o        238 PET     -0.591068
   5227 O3         38.0600   74.9500   56.7500 o        238 PET     -0.591068
   5228 O4         39.4000   76.7400   56.5600 os       238 PET     -0.411922
   5229 HA2        36.2900   80.2600   55.6900 ha       238 PET      0.129090
   5230 HA3        38.0800   78.9200   56.1900 ha       238 PET      0.145907
   5231 HA4        33.5400   77.1400   56.7700 ha       238 PET      0.145907
   5232 HA5        35.5000   75.4900   56.9200 ha       238 PET      0.129090
   5233 H31        40.4600   75.1500   56.6800 h1       238 PET      0.097188
   5234 H32        41.4100   76.5400   56.6700 h1       238 PET      0.097188
   5235 H41        39.4200   75.9100   59.0600 h1       238 PET      0.097188
   5236 H42        40.8600   76.9900   59.0600 h1       238 PET      0.097188
   5237 C1         42.5000   74.9000   58.9200 c        239 PET      0.825469
   5238 CA1        43.1100   73.5900   59.2200 ca       239 PET     -0.163574
   5239 CA2        44.4600   73.3600   58.9400 ca       239 PET     -0.108363
   5240 CA3        45.0200   72.1000   59.1900 ca       239 PET     -0.078542
   5241 CA4        42.2900   72.5900   59.8900 ca       239 PET     -0.078542
   5242 CA5        42.8600   71.3400   60.1800 ca       239 PET     -0.108363
   5243 CA6        44.2500   71.1100   59.8900 ca       239 PET     -0.163574
   5244 C2         44.8400   69.8100   60.2200 c        239 PET      0.825469
   5245 C3         44.6200   67.7400   61.3800 c3       239 PET      0.058627
   5246 C4         45.7000   67.7700   62.4400 c3       239 PET      0.058627
   5247 O1         41.1600   74.9000   59.1000 os       239 PET     -0.411922
   5248 O2         43.1000   75.9000   58.6200 o        239 PET     -0.591068
   5249 O3         45.7600   69.4400   59.5800 o        239 PET     -0.591068
   5250 O4         44.1800   69.1400   61.1400 os       239 PET     -0.411922
   5251 HA2        45.0100   74.1900   58.5100 ha       239 PET      0.129090
   5252 HA3        46.0600   71.9200   58.9200 ha       239 PET      0.145907
   5253 HA4        41.2400   72.7300   60.1100 ha       239 PET      0.145907
   5254 HA5        42.2500   70.5600   60.6300 ha       239 PET      0.129090
   5255 H31        43.7400   67.2600   61.8300 h1       239 PET      0.097188
   5256 H32        44.9700   67.1500   60.5200 h1       239 PET      0.097188
   5257 H41        45.9400   66.7100   62.6000 h1       239 PET      0.097188
   5258 H42        45.2700   68.2000   63.3600 h1       239 PET      0.097188
   5259 C1         48.0500   68.1700   62.4600 c        240 PET      0.825469
   5260 CA1        49.2000   68.8000   61.7400 ca       240 PET     -0.163574
   5261 CA2        49.0300   69.8900   60.8400 ca       240 PET     -0.108363
   5262 CA3        50.1500   70.5200   60.2500 ca       240 PET     -0.078542
   5263 CA4        50.5300   68.3800   62.0400 ca       240 PET     -0.078542
   5264 CA5        51.6300   69.0300   61.4800 ca       240 PET     -0.108363
   5265 CA6        51.5000   70.0800   60.5500 ca       240 PET     -0.163574
   5266 C2         52.5900   70.7800   59.9300 c        240 PET      0.825469
   5267 C3         54.9900   71.1900   60.2500 c3       240 PET      0.058627
   5268 C4         56.0000   70.8000   61.2600 c3       240 PET      0.058627
   5269 O1         46.8300   68.4900   61.9500 os       240 PET     -0.411922
   5270 O2         48.2600   67.4800   63.4500 o        240 PET     -0.591068
   5271 O3         52.4800   71.5500   58.9900 o        240 PET     -0.591068
   5272 O4         53.7600   70.5300   60.6900 os       240 PET     -0.411922
   5273 HA2        48.0100   70.2300   60.7000 ha       240 PET      0.129090
   5274 HA3        50.0400   71.4600   59.7100 ha       240 PET      0.145907
   5275 HA4        50.6800   67.4900   62.6300 ha       240 PET      0.145907
   5276 HA5        52.6400   68.7400   61.7600 ha       240 PET      0.129090
   5277 H31        55.2500   70.8400   59.2400 h1       240 PET      0.097188
   5278 H32        54.8800   72.2800   60.2500 h1       240 PET      0.097188
   5279 H41        56.9500   71.3500   61.1700 h1       240 PET      0.097188
   5280 H42        56.1000   69.7000   61.2500 h1       240 PET      0.097188
   5281 C1         15.9000   55.9000   63.3900 c        241 PET      0.825469
   5282 CA1        17.1000   56.7600   63.8100 ca       241 PET     -0.163574
   5283 CA2        18.3400   56.7300   63.1100 ca       241 PET     -0.108363
   5284 CA3        19.3900   57.5600   63.4000 ca       241 PET     -0.078542
   5285 CA4        16.9300   57.7000   64.8100 ca       241 PET     -0.078542
   5286 CA5        17.9900   58.6400   65.0700 ca       241 PET     -0.108363
   5287 CA6        19.2500   58.5400   64.3800 ca       241 PET     -0.163574
   5288 C2         20.4000   59.5000   64.6600 c        241 PET      0.825469
   5289 C3         22.7300   59.9000   64.5000 c3       241 PET      0.058627
   5290 C4         24.0300   59.1500   64.1400 c3       241 PET      0.058627
   5291 O1         16.0000   55.4400   62.1200 os       241 PET     -0.411922
   5292 O2         14.9400   55.6800   64.1300 o        241 PET     -0.591068
   5293 O3         20.2300   60.3900   65.4800 o        241 PET     -0.591068
   5294 O4         21.5900   59.1700   64.1200 os       241 PET     -0.411922
   5295 HA2        18.5000   55.9700   62.3500 ha       241 PET      0.129090
   5296 HA3        20.2800   57.4200   62.7800 ha       241 PET      0.145907
   5297 HA4        15.9700   57.8100   65.3000 ha       241 PET      0.145907
   5298 HA5        17.8800   59.3900   65.8500 ha       241 PET      0.129090
   5299 H31        22.7500   60.8800   64.0100 h1       241 PET      0.097188
   5300 H32        22.6900   60.1500   65.5600 h1       241 PET      0.097188
   5301 H41        23.7600   58.3800   63.4000 h1       241 PET      0.097188
   5302 H42        24.4600   58.6000   64.9800 h1       241 PET      0.097188
   5303 C1         26.1500   59.5500   62.9800 c        242 PET      0.825469
   5304 CA1        27.0200   60.4100   62.1300 ca       242 PET     -0.163574
   5305 CA2        26.7000   61.7700   61.9500 ca       242 PET     -0.108363
   5306 CA3        27.6700   62.5900   61.3600 ca       242 PET     -0.078542
   5307 CA4        28.3300   59.9100   61.7900 ca       242 PET     -0.078542
   5308 CA5        29.2500   60.7900   61.2200 ca       242 PET     -0.108363
   5309 CA6        28.9400   62.1100   61.0000 ca       242 PET     -0.163574
   5310 C2         29.8400   62.9500   60.0600 c        242 PET      0.825469
   5311 C3         30.2400   65.3100   59.3500 c3       242 PET      0.058627
   5312 C4         29.7900   66.7600   59.7100 c3       242 PET      0.058627
   5313 O1         25.0200   60.0500   63.4400 os       242 PET     -0.411922
   5314 O2         26.4900   58.4100   63.2400 o        242 PET     -0.591068
   5315 O3         30.8200   62.5400   59.5200 o        242 PET     -0.591068
   5316 O4         29.5000   64.3300   60.1300 os       242 PET     -0.411922
   5317 HA2        25.7200   62.1100   62.2800 ha       242 PET      0.129090
   5318 HA3        27.3600   63.6100   61.1800 ha       242 PET      0.145907
   5319 HA4        28.5900   58.9100   62.1200 ha       242 PET      0.145907
   5320 HA5        30.2500   60.3900   61.0600 ha       242 PET      0.129090
   5321 H31        31.3300   65.2500   59.4700 h1       242 PET      0.097188
   5322 H32        29.9600   65.1500   58.3000 h1       242 PET      0.097188
   5323 H41        30.1800   67.4600   58.9700 h1       242 PET      0.097188
   5324 H42        30.2300   67.2300   60.6000 h1       242 PET      0.097188
   5325 C1         27.7300   68.0700   59.9700 c        243 PET      0.825469
   5326 CA1        26.2200   68.0700   60.2000 ca       243 PET     -0.163574
   5327 CA2        25.5600   69.2900   60.2900 ca       243 PET     -0.108363
   5328 CA3        24.1900   69.3100   60.4600 ca       243 PET     -0.078542
   5329 CA4        25.4500   66.8700   60.2600 ca       243 PET     -0.078542
   5330 CA5        24.0800   66.9000   60.2200 ca       243 PET     -0.108363
   5331 CA6        23.4700   68.1500   60.2300 ca       243 PET     -0.163574
   5332 C2         21.9300   68.1800   60.2100 c        243 PET      0.825469
   5333 C3         20.0000   69.6100   60.3500 c3       243 PET      0.058627
   5334 C4         19.7200   69.4400   61.9300 c3       243 PET      0.058627
   5335 O1         28.2900   66.8500   59.7700 os       243 PET     -0.411922
   5336 O2         28.3200   69.1100   60.1200 o        243 PET     -0.591068
   5337 O3         21.2300   67.2100   60.1900 o        243 PET     -0.591068
   5338 O4         21.4200   69.5100   60.2500 os       243 PET     -0.411922
   5339 HA2        26.0800   70.2500   60.2900 ha       243 PET      0.129090
   5340 HA3        23.7000   70.2800   60.4000 ha       243 PET      0.145907
   5341 HA4        25.9400   65.9000   60.2200 ha       243 PET      0.145907
   5342 HA5        23.5200   65.9700   60.1400 ha       243 PET      0.129090
   5343 H31        19.6100   70.5700   59.9700 h1       243 PET      0.097188
   5344 H32        19.6700   68.7500   59.7600 h1       243 PET      0.097188
   5345 H41        20.2900   70.1900   62.4800 h1       243 PET      0.097188
   5346 H42        19.9200   68.4000   62.2000 h1       243 PET      0.097188
   5347 C1         17.7800   71.0200   62.1100 c        244 PET      0.825469
   5348 CA1        16.2800   70.9700   62.3100 ca       244 PET     -0.163574
   5349 CA2        15.5400   69.8500   62.2600 ca       244 PET     -0.108363
   5350 CA3        14.1200   69.8200   62.1900 ca       244 PET     -0.078542
   5351 CA4        15.5900   72.1700   62.5300 ca       244 PET     -0.078542
   5352 CA5        14.1400   72.1700   62.4400 ca       244 PET     -0.108363
   5353 CA6        13.4200   71.0200   62.2600 ca       244 PET     -0.163574
   5354 C2         11.9000   71.0800   62.1500 c        244 PET      0.825469
   5355 C3          9.9100   70.0400   61.2700 c3       244 PET      0.058627
   5356 C4          9.5500   68.7500   60.6000 c3       244 PET      0.058627
   5357 O1         18.2700   69.7300   62.1900 os       244 PET     -0.411922
   5358 O2         18.3800   71.9800   61.8200 o        244 PET     -0.591068
   5359 O3         11.3200   72.1300   62.4000 o        244 PET     -0.591068
   5360 O4         11.3400   69.9800   61.5600 os       244 PET     -0.411922
   5361 HA2        16.0200   68.8900   62.3300 ha       244 PET      0.129090
   5362 HA3        13.6600   68.8600   61.9700 ha       244 PET      0.145907
   5363 HA4        16.1900   73.0700   62.6300 ha       244 PET      0.145907
   5364 HA5        13.5500   73.0700   62.4700 ha       244 PET      0.129090
   5365 H31         9.4600   70.0600   62.2700 h1       244 PET      0.097188
   5366 H32         9.5100   70.9000   60.7200 h1       244 PET      0.097188
   5367 H41         9.9700   67.9100   61.1500 h1       244 PET      0.097188
   5368 H42         9.8900   68.7600   59.5500 h1       244 PET      0.097188
   5369 C1          7.2600   69.5400   60.1500 c        245 PET      0.825469
   5370 CA1         5.8700   69.1800   60.3400 ca       245 PET     -0.163574
   5371 CA2         5.5600   68.1500   61.2200 ca       245 PET     -0.108363
   5372 CA3         4.2200   67.7700   61.3100 ca       245 PET     -0.078542
   5373 CA4         4.8900   69.8600   59.6000 ca       245 PET     -0.078542
   5374 CA5         3.5500   69.4100   59.7000 ca       245 PET     -0.108363
   5375 CA6         3.1800   68.3500   60.5800 ca       245 PET     -0.163574
   5376 C2          1.7500   68.1200   60.8800 c        245 PET      0.825469
   5377 C3         -0.4700   68.5600   59.9800 c3       245 PET      0.058627
   5378 C4         -0.5800   67.4700   58.8900 c3       245 PET      0.058627
   5379 O1          8.1500   68.6300   60.6900 os       245 PET     -0.411922
   5380 O2          7.6500   70.4900   59.5200 o        245 PET     -0.591068
   5381 O3          1.3800   67.3500   61.7900 o        245 PET     -0.591068
   5382 O4          0.9500   68.8700   60.0400 os       245 PET     -0.411922
   5383 HA2         6.2800   67.7500   61.9300 ha       245 PET      0.129090
   5384 HA3         3.9000   67.0800   62.0900 ha       245 PET      0.145907
   5385 HA4         5.1300   70.6500   58.8800 ha       245 PET      0.145907
   5386 HA5         2.7500   69.9500   59.2000 ha       245 PET      0.129090
   5387 H31        -0.8400   68.3100   60.9800 h1       245 PET      0.097188
   5388 H32        -1.0300   69.4100   59.5700 h1       245 PET      0.097188
   5389 H41         0.3200   66.8600   58.7000 h1       245 PET      0.097188
   5390 H42        -0.8500   67.9100   57.9200 h1       245 PET      0.097188
   5391 C1         77.8700   65.5000   58.5900 c        246 PET      0.825469
   5392 CA1        76.7100   64.7500   59.2700 ca       246 PET     -0.163574
   5393 CA2        76.0200   63.6800   58.6500 ca       246 PET     -0.108363
   5394 CA3        74.8800   63.0500   59.2800 ca       246 PET     -0.078542
   5395 CA4        76.3100   65.0900   60.6000 ca       246 PET     -0.078542
   5396 CA5        75.2500   64.3600   61.1800 ca       246 PET     -0.108363
   5397 CA6        74.4500   63.4500   60.5100 ca       246 PET     -0.163574
   5398 C2         73.2800   62.8500   61.1400 c        246 PET      0.825469
   5399 C3         72.1300   62.9000   63.2400 c3       246 PET      0.058627
   5400 C4         73.1200   62.7000   64.4100 c3       246 PET      0.058627
   5401 O1         78.4100   66.4800   59.3800 os       246 PET     -0.411922
   5402 O2         78.0200   65.5000   57.3600 o        246 PET     -0.591068
   5403 O3         72.7500   61.9000   60.6700 o        246 PET     -0.591068
   5404 O4         72.8900   63.5600   62.2300 os       246 PET     -0.411922
   5405 HA2        76.3500   63.2800   57.6900 ha       246 PET      0.129090
   5406 HA3        74.4700   62.1600   58.8100 ha       246 PET      0.145907
   5407 HA4        76.8200   65.7600   61.2800 ha       246 PET      0.145907
   5408 HA5        74.9300   64.6300   62.1800 ha       246 PET      0.129090
   5409 H31        71.3700   63.5900   63.6200 h1       246 PET      0.097188
   5410 H32        71.7000   61.9900   62.8100 h1       246 PET      0.097188
   5411 H41        72.8700   61.7200   64.8200 h1       246 PET      0.097188
   5412 H42        72.9300   63.3700   65.2600 h1       246 PET      0.097188
   5413 C1         -4.8300   61.8300   63.4500 c        247 PET      0.825469
   5414 CA1        -3.3400   62.0600   63.2600 ca       247 PET     -0.163574
   5415 CA2        -2.4800   62.7200   64.1800 ca       247 PET     -0.108363
   5416 CA3        -1.0900   62.9900   63.8700 ca       247 PET     -0.078542
   5417 CA4        -2.7200   61.5200   62.1400 ca       247 PET     -0.078542
   5418 CA5        -1.3600   61.5600   61.9600 ca       247 PET     -0.108363
   5419 CA6        -0.5300   62.3100   62.8400 ca       247 PET     -0.163574
   5420 C2          0.9300   62.5600   62.4100 c        247 PET      0.825469
   5421 C3          2.6800   64.1200   62.8800 c3       247 PET      0.058627
   5422 C4          3.8200   63.0800   62.7200 c3       247 PET      0.058627
   5423 O1         -5.5300   62.8100   64.0800 os       247 PET     -0.411922
   5424 O2         -5.3600   60.7900   63.1300 o        247 PET     -0.591068
   5425 O3          1.4700   62.0200   61.4700 o        247 PET     -0.591068
   5426 O4          1.4400   63.5100   63.2000 os       247 PET     -0.411922
   5427 HA2        -2.8500   63.1600   65.1100 ha       247 PET      0.129090
   5428 HA3        -0.5300   63.5300   64.6200 ha       247 PET      0.145907
   5429 HA4        -3.2700   60.9300   61.4100 ha       247 PET      0.145907
   5430 HA5        -0.9200   61.0400   61.1100 ha       247 PET      0.129090
   5431 H31         2.5800   64.8400   62.0600 h1       247 PET      0.097188
   5432 H32         2.9700   64.6600   63.7900 h1       247 PET      0.097188
   5433 H41         3.8700   62.6400   61.7200 h1       247 PET      0.097188
   5434 H42         3.6800   62.2500   63.4100 h1       247 PET      0.097188
   5435 C1          6.1800   63.0200   63.0200 c        248 PET      0.825469
   5436 CA1         7.3700   63.8200   63.3300 ca       248 PET     -0.163574
   5437 CA2         7.4000   65.2200   63.0600 ca       248 PET     -0.108363
   5438 CA3         8.5900   65.9500   63.2200 ca       248 PET     -0.078542
   5439 CA4         8.4500   63.2900   64.0100 ca       248 PET     -0.078542
   5440 CA5         9.6600   64.0300   64.2300 ca       248 PET     -0.108363
   5441 CA6         9.7600   65.3700   63.8000 ca       248 PET     -0.163574
   5442 C2         11.0100   66.2200   63.8700 c        248 PET      0.825469
   5443 C3         13.3800   66.0600   64.0600 c3       248 PET      0.058627
   5444 C4         13.8300   67.3800   64.7900 c3       248 PET      0.058627
   5445 O1          5.0700   63.7700   62.8400 os       248 PET     -0.411922
   5446 O2          6.2000   61.7600   63.1500 o        248 PET     -0.591068
   5447 O3         11.0800   67.3400   63.3100 o        248 PET     -0.591068
   5448 O4         12.0700   65.6500   64.5300 os       248 PET     -0.411922
   5449 HA2         6.6600   65.7000   62.4300 ha       248 PET      0.129090
   5450 HA3         8.6600   66.9300   62.7600 ha       248 PET      0.145907
   5451 HA4         8.3700   62.2600   64.3400 ha       248 PET      0.145907
   5452 HA5        10.5000   63.5000   64.6700 ha       248 PET      0.129090
   5453 H31        14.1600   65.3100   64.2300 h1       248 PET      0.097188
   5454 H32        13.2900   66.1400   62.9700 h1       248 PET      0.097188
   5455 H41        13.5400   67.4100   65.8500 h1       248 PET      0.097188
   5456 H42        13.5900   68.2900   64.2400 h1       248 PET      0.097188
   5457 C1         15.6800   68.6000   65.3000 c        249 PET      0.825469
   5458 CA1        17.1900   68.6700   65.3000 ca       249 PET     -0.163574
   5459 CA2        18.0400   67.5700   65.3000 ca       249 PET     -0.108363
   5460 CA3        19.4400   67.7100   65.3200 ca       249 PET     -0.078542
   5461 CA4        17.7900   69.9200   65.2200 ca       249 PET     -0.078542
   5462 CA5        19.1300   70.0500   65.1800 ca       249 PET     -0.108363
   5463 CA6        19.9700   69.0100   65.3100 ca       249 PET     -0.163574
   5464 C2         21.4500   69.0600   65.2300 c        249 PET      0.825469
   5465 C3         23.3900   70.5100   64.9200 c3       249 PET      0.058627
   5466 C4         23.7700   70.6300   63.4300 c3       249 PET      0.058627
   5467 O1         15.2000   67.3900   64.9000 os       249 PET     -0.411922
   5468 O2         15.0200   69.6000   65.6400 o        249 PET     -0.591068
   5469 O3         22.1400   68.0500   65.2600 o        249 PET     -0.591068
   5470 O4         21.9200   70.3100   65.0200 os       249 PET     -0.411922
   5471 HA2        17.5600   66.6000   65.4200 ha       249 PET      0.129090
   5472 HA3        20.1100   66.8500   65.2900 ha       249 PET      0.145907
   5473 HA4        17.1700   70.8100   65.2100 ha       249 PET      0.145907
   5474 HA5        19.4600   71.0800   65.0900 ha       249 PET      0.129090
   5475 H31        23.5100   71.5300   65.2800 h1       249 PET      0.097188
   5476 H32        23.9700   69.8500   65.5800 h1       249 PET      0.097188
   5477 H41        23.4600   69.6900   62.9500 h1       249 PET      0.097188
   5478 H42        24.8500   70.6900   63.2800 h1       249 PET      0.097188
   5479 C1         23.5900   72.9600   62.9500 c        250 PET      0.825469
   5480 CA1        22.5200   74.0000   62.6600 ca       250 PET     -0.163574
   5481 CA2        21.1300   73.6800   62.6500 ca       250 PET     -0.108363
   5482 CA3        20.1000   74.7100   62.3900 ca       250 PET     -0.078542
   5483 CA4        22.7900   75.3700   62.3000 ca       250 PET     -0.078542
   5484 CA5        21.8200   76.3900   62.1800 ca       250 PET     -0.108363
   5485 CA6        20.4600   76.0900   62.2300 ca       250 PET     -0.163574
   5486 C2         19.3000   77.1100   62.0900 c        250 PET      0.825469
   5487 C3         18.7400   79.2300   61.0500 c3       250 PET      0.058627
   5488 C4         18.4900   79.0400   59.5600 c3       250 PET      0.058627
   5489 O1         23.1000   71.6800   62.7800 os       250 PET     -0.411922
   5490 O2         24.7000   73.1900   63.3500 o        250 PET     -0.591068
   5491 O3         18.1400   76.8100   62.3700 o        250 PET     -0.591068
   5492 O4         19.6800   78.2900   61.5500 os       250 PET     -0.411922
   5493 HA2        20.8400   72.6600   62.8500 ha       250 PET      0.129090
   5494 HA3        19.0600   74.4500   62.2500 ha       250 PET      0.145907
   5495 HA4        23.8500   75.5900   62.2100 ha       250 PET      0.145907
   5496 HA5        22.1100   77.4100   61.9600 ha       250 PET      0.129090
   5497 H31        17.8300   79.3400   61.6400 h1       250 PET      0.097188
   5498 H32        19.1900   80.2300   61.0500 h1       250 PET      0.097188
   5499 H41        18.6300   79.9000   58.9000 h1       250 PET      0.097188
   5500 H42        17.4500   78.7700   59.3000 h1       250 PET      0.097188
   5501 C1         19.1300   76.7400   59.0300 c        251 PET      0.825469
   5502 CA1        20.3600   75.8400   58.9700 ca       251 PET     -0.163574
   5503 CA2        20.3300   74.4300   59.1800 ca       251 PET     -0.108363
   5504 CA3        21.4900   73.6300   59.2100 ca       251 PET     -0.078542
   5505 CA4        21.6400   76.3700   58.6500 ca       251 PET     -0.078542
   5506 CA5        22.7900   75.5300   58.6900 ca       251 PET     -0.108363
   5507 CA6        22.7300   74.1800   59.0100 ca       251 PET     -0.163574
   5508 C2         23.9500   73.3400   59.3200 c        251 PET      0.825469
   5509 C3         25.9500   73.4400   60.4900 c3       251 PET      0.058627
   5510 C4         26.7500   74.4600   61.2700 c3       251 PET      0.058627
   5511 O1         19.4100   78.0800   59.0900 os       251 PET     -0.411922
   5512 O2         18.0500   76.2600   59.2400 o        251 PET     -0.591068
   5513 O3         24.0300   72.1200   59.1600 o        251 PET     -0.591068
   5514 O4         24.8100   74.2000   59.8900 os       251 PET     -0.411922
   5515 HA2        19.3400   74.0100   59.3200 ha       251 PET      0.129090
   5516 HA3        21.3800   72.5600   59.3600 ha       251 PET      0.145907
   5517 HA4        21.7800   77.4300   58.4300 ha       251 PET      0.145907
   5518 HA5        23.7400   76.0600   58.6200 ha       251 PET      0.129090
   5519 H31        25.6400   72.6300   61.1600 h1       251 PET      0.097188
   5520 H32        26.5200   73.0000   59.6600 h1       251 PET      0.097188
   5521 H41        26.4200   74.5000   62.3200 h1       251 PET      0.097188
   5522 H42        26.5000   75.3700   60.7100 h1       251 PET      0.097188
   5523 C1         28.6300   72.9500   61.6200 c        252 PET      0.825469
   5524 CA1        30.1400   72.8200   61.5500 ca       252 PET     -0.163574
   5525 CA2        30.9800   73.8900   61.2400 ca       252 PET     -0.108363
   5526 CA3        32.3600   73.7500   61.3800 ca       252 PET     -0.078542
   5527 CA4        30.7000   71.7100   62.2300 ca       252 PET     -0.078542
   5528 CA5        32.1100   71.6400   62.3400 ca       252 PET     -0.108363
   5529 CA6        32.9900   72.6400   61.9000 ca       252 PET     -0.163574
   5530 C2         34.4500   72.6400   62.1800 c        252 PET      0.825469
   5531 C3         36.2100   71.2600   63.3400 c3       252 PET      0.058627
   5532 C4         37.1500   71.0900   62.2200 c3       252 PET      0.058627
   5533 O1         28.1400   74.1500   61.1800 os       252 PET     -0.411922
   5534 O2         27.9400   72.0700   62.1100 o        252 PET     -0.591068
   5535 O3         35.1800   73.6100   62.0500 o        252 PET     -0.591068
   5536 O4         34.8300   71.4600   62.8000 os       252 PET     -0.411922
   5537 HA2        30.5800   74.8300   60.8900 ha       252 PET      0.129090
   5538 HA3        32.9600   74.5600   60.9700 ha       252 PET      0.145907
   5539 HA4        30.1400   70.9000   62.6900 ha       252 PET      0.145907
   5540 HA5        32.5300   70.7700   62.8400 ha       252 PET      0.129090
   5541 H31        36.4600   72.1700   63.9000 h1       252 PET      0.097188
   5542 H32        36.2200   70.4900   64.1300 h1       252 PET      0.097188
   5543 H41        38.1800   70.8600   62.5000 h1       252 PET      0.097188
   5544 H42        37.1300   71.9900   61.5800 h1       252 PET      0.097188
   5545 C1         36.7800   68.8300   61.5800 c        253 PET      0.825469
   5546 CA1        35.8800   67.9300   60.7900 ca       253 PET     -0.163574
   5547 CA2        34.8600   68.4800   60.0000 ca       253 PET     -0.108363
   5548 CA3        34.0800   67.6900   59.1500 ca       253 PET     -0.078542
   5549 CA4        36.1100   66.5000   60.7100 ca       253 PET     -0.078542
   5550 CA5        35.2900   65.7600   59.8100 ca       253 PET     -0.108363
   5551 CA6        34.2800   66.2800   59.0100 ca       253 PET     -0.163574
   5552 C2         33.4800   65.3500   58.1200 c        253 PET      0.825469
   5553 C3         33.4800   63.1000   57.0900 c3       253 PET      0.058627
   5554 C4         33.7500   63.5900   55.5600 c3       253 PET      0.058627
   5555 O1         36.6000   70.1500   61.3400 os       253 PET     -0.411922
   5556 O2         37.5900   68.4100   62.4100 o        253 PET     -0.591068
   5557 O3         32.5100   65.7700   57.4500 o        253 PET     -0.591068
   5558 O4         34.0300   64.0700   58.0200 os       253 PET     -0.411922
   5559 HA2        34.4900   69.5000   60.1400 ha       253 PET      0.129090
   5560 HA3        33.2700   68.2100   58.6500 ha       253 PET      0.145907
   5561 HA4        36.8800   66.0700   61.3400 ha       253 PET      0.145907
   5562 HA5        35.4400   64.6900   59.7100 ha       253 PET      0.129090
   5563 H31        34.0700   62.1800   57.2300 h1       253 PET      0.097188
   5564 H32        32.4200   62.8900   57.2500 h1       253 PET      0.097188
   5565 H41        32.8200   63.9800   55.1400 h1       253 PET      0.097188
   5566 H42        34.0300   62.7100   54.9800 h1       253 PET      0.097188
   5567 C1         36.1400   64.2000   55.5900 c        254 PET      0.825469
   5568 CA1        36.9800   65.3800   55.3800 ca       254 PET     -0.163574
   5569 CA2        38.3500   65.1700   55.2500 ca       254 PET     -0.108363
   5570 CA3        39.2700   66.2400   55.3200 ca       254 PET     -0.078542
   5571 CA4        36.5300   66.6700   55.5100 ca       254 PET     -0.078542
   5572 CA5        37.3800   67.7700   55.4800 ca       254 PET     -0.108363
   5573 CA6        38.8100   67.5700   55.3300 ca       254 PET     -0.163574
   5574 C2         39.7200   68.7300   55.2900 c        254 PET      0.825469
   5575 C3         41.9400   69.4600   55.2800 c3       254 PET      0.058627
   5576 C4         42.3200   69.8600   56.7500 c3       254 PET      0.058627
   5577 O1         34.8000   64.5300   55.5400 os       254 PET     -0.411922
   5578 O2         36.5900   63.0800   55.8200 o        254 PET     -0.591068
   5579 O3         39.3300   69.8800   55.2900 o        254 PET     -0.591068
   5580 O4         41.0400   68.3900   55.1900 os       254 PET     -0.411922
   5581 HA2        38.7100   64.1800   54.9700 ha       254 PET      0.129090
   5582 HA3        40.3400   66.1100   55.1900 ha       254 PET      0.145907
   5583 HA4        35.4500   66.7900   55.5200 ha       254 PET      0.145907
   5584 HA5        37.0600   68.8100   55.5700 ha       254 PET      0.129090
   5585 H31        42.8100   69.2700   54.6400 h1       254 PET      0.097188
   5586 H32        41.5100   70.3800   54.8600 h1       254 PET      0.097188
   5587 H41        41.4200   70.2800   57.2100 h1       254 PET      0.097188
   5588 H42        43.1800   70.5500   56.7800 h1       254 PET      0.097188
   5589 C1         43.8000   68.1700   57.1800 c        255 PET      0.825469
   5590 CA1        44.0200   66.7900   57.8300 ca       255 PET     -0.163574
   5591 CA2        45.3400   66.3300   58.1200 ca       255 PET     -0.108363
   5592 CA3        45.5800   65.0000   58.5100 ca       255 PET     -0.078542
   5593 CA4        42.8900   65.9700   58.0400 ca       255 PET     -0.078542
   5594 CA5        43.1900   64.6300   58.4400 ca       255 PET     -0.108363
   5595 CA6        44.5000   64.1600   58.5900 ca       255 PET     -0.163574
   5596 C2         44.6800   62.6800   58.9300 c        255 PET      0.825469
   5597 C3         46.3800   61.0700   59.4100 c3       255 PET      0.058627
   5598 C4         46.4300   60.3400   58.1100 c3       255 PET      0.058627
   5599 O1         42.5900   68.6500   57.4400 os       255 PET     -0.411922
   5600 O2         44.6700   68.8200   56.6100 o        255 PET     -0.591068
   5601 O3         43.8000   61.8800   58.9100 o        255 PET     -0.591068
   5602 O4         45.9800   62.4100   59.2300 os       255 PET     -0.411922
   5603 HA2        46.1700   67.0400   58.1600 ha       255 PET      0.129090
   5604 HA3        46.5700   64.6300   58.7700 ha       255 PET      0.145907
   5605 HA4        41.8600   66.2200   57.8000 ha       255 PET      0.145907
   5606 HA5        42.3000   64.0300   58.6000 ha       255 PET      0.129090
   5607 H31        47.2700   61.1400   60.0500 h1       255 PET      0.097188
   5608 H32        45.7100   60.5300   60.1000 h1       255 PET      0.097188
   5609 H41        47.0000   61.0100   57.4500 h1       255 PET      0.097188
   5610 H42        45.4300   60.2900   57.6600 h1       255 PET      0.097188
   5611 C1         48.4700   59.0600   58.2800 c        256 PET      0.825469
   5612 CA1        49.1300   57.6900   58.5700 ca       256 PET     -0.163574
   5613 CA2        48.2800   56.5400   58.7300 ca       256 PET     -0.108363
   5614 CA3        48.8600   55.2900   59.0000 ca       256 PET     -0.078542
   5615 CA4        50.5100   57.5800   58.6500 ca       256 PET     -0.078542
   5616 CA5        51.1200   56.3100   58.9200 ca       256 PET     -0.108363
   5617 CA6        50.3000   55.1800   59.1400 ca       256 PET     -0.163574
   5618 C2         50.7500   53.8000   59.6400 c        256 PET      0.825469
   5619 C3         52.5700   52.3700   60.2800 c3       256 PET      0.058627
   5620 C4         54.1100   52.1300   60.0800 c3       256 PET      0.058627
   5621 O1         47.0900   59.0800   58.3100 os       256 PET     -0.411922
   5622 O2         49.2000   60.0300   58.0900 o        256 PET     -0.591068
   5623 O3         49.9800   52.8600   59.9700 o        256 PET     -0.591068
   5624 O4         52.0600   53.5900   59.6500 os       256 PET     -0.411922
   5625 HA2        47.2000   56.6400   58.6600 ha       256 PET      0.129090
   5626 HA3        48.2400   54.4000   59.1200 ha       256 PET      0.145907
   5627 HA4        51.2200   58.3800   58.4400 ha       256 PET      0.145907
   5628 HA5        52.2000   56.3900   59.0100 ha       256 PET      0.129090
   5629 H31        52.3900   52.4800   61.3600 h1       256 PET      0.097188
   5630 H32        52.0700   51.5200   59.7900 h1       256 PET      0.097188
   5631 H41        54.4400   51.7500   59.1100 h1       256 PET      0.097188
   5632 H42        54.3900   51.3200   60.7700 h1       256 PET      0.097188
   5633 C1         56.2300   53.1900   60.4800 c        257 PET      0.825469
   5634 CA1        57.0400   54.5300   60.6800 ca       257 PET     -0.163574
   5635 CA2        58.3700   54.5300   61.1200 ca       257 PET     -0.108363
   5636 CA3        59.0600   55.6900   61.4300 ca       257 PET     -0.078542
   5637 CA4        56.3700   55.7700   60.6500 ca       257 PET     -0.078542
   5638 CA5        57.0800   56.9200   60.8100 ca       257 PET     -0.108363
   5639 CA6        58.4400   56.9400   61.2300 ca       257 PET     -0.163574
   5640 C2         59.0800   58.2500   61.4200 c        257 PET      0.825469
   5641 C3         61.2000   59.2100   61.8000 c3       257 PET      0.058627
   5642 C4         62.5700   58.6800   61.7200 c3       257 PET      0.058627
   5643 O1         54.8500   53.3300   60.4700 os       257 PET     -0.411922
   5644 O2         56.7800   52.1100   60.4100 o        257 PET     -0.591068
   5645 O3         58.5600   59.3500   61.3800 o        257 PET     -0.591068
   5646 O4         60.4000   58.0900   61.6400 os       257 PET     -0.411922
   5647 HA2        58.9200   53.6000   61.2000 ha       257 PET      0.129090
   5648 HA3        60.1000   55.6900   61.7700 ha       257 PET      0.145907
   5649 HA4        55.3000   55.8100   60.4600 ha       257 PET      0.145907
   5650 HA5        56.5700   57.8700   60.6500 ha       257 PET      0.129090
   5651 H31        61.0700   59.8900   60.9500 h1       257 PET      0.097188
   5652 H32        61.0600   59.6600   62.7900 h1       257 PET      0.097188
   5653 H41        62.7700   58.0600   60.8400 h1       257 PET      0.097188
   5654 H42        62.7700   58.0300   62.5800 h1       257 PET      0.097188
   5655 C1         64.7600   59.5700   61.9900 c        258 PET      0.825469
   5656 CA1        65.6100   60.7800   61.7600 ca       258 PET     -0.163574
   5657 CA2        67.0200   60.5400   61.6500 ca       258 PET     -0.108363
   5658 CA3        67.8500   61.5900   61.7200 ca       258 PET     -0.078542
   5659 CA4        65.1200   62.0800   61.7400 ca       258 PET     -0.078542
   5660 CA5        65.9700   63.2100   61.7700 ca       258 PET     -0.108363
   5661 CA6        67.4300   62.9300   61.7500 ca       258 PET     -0.163574
   5662 C2         68.3700   64.0700   61.6000 c        258 PET      0.825469
   5663 C3         68.8700   66.2100   60.5800 c3       258 PET      0.058627
   5664 C4         69.9300   65.6600   59.5900 c3       258 PET      0.058627
   5665 O1         63.4400   59.8500   61.7100 os       258 PET     -0.411922
   5666 O2         65.2200   58.4700   62.3500 o        258 PET     -0.591068
   5667 O3         69.5200   63.8500   61.9100 o        258 PET     -0.591068
   5668 O4         67.9000   65.2500   61.0500 os       258 PET     -0.411922
   5669 HA2        67.2500   59.5000   61.4400 ha       258 PET      0.129090
   5670 HA3        68.9200   61.3800   61.7200 ha       258 PET      0.145907
   5671 HA4        64.0500   62.2600   61.6600 ha       258 PET      0.145907
   5672 HA5        65.6400   64.2400   61.8100 ha       258 PET      0.129090
   5673 H31        68.3700   67.0200   60.0300 h1       258 PET      0.097188
   5674 H32        69.3100   66.6700   61.4700 h1       258 PET      0.097188
   5675 H41        69.4100   65.5100   58.6300 h1       258 PET      0.097188
   5676 H42        70.3700   64.6900   59.8700 h1       258 PET      0.097188
   5677 C1         72.1900   66.2900   58.9100 c        259 PET      0.825469
   5678 CA1        73.1200   67.4500   58.8100 ca       259 PET     -0.163574
   5679 CA2        74.4800   67.2700   58.5100 ca       259 PET     -0.108363
   5680 CA3        75.3400   68.4100   58.7200 ca       259 PET     -0.078542
   5681 CA4        72.6800   68.6800   59.2300 ca       259 PET     -0.078542
   5682 CA5        73.5300   69.8100   59.4000 ca       259 PET     -0.108363
   5683 CA6        74.8400   69.7100   59.1300 ca       259 PET     -0.163574
   5684 C2         75.7400   70.8800   59.2300 c        259 PET      0.825469
   5685 C3         75.9900   73.2100   59.2200 c3       259 PET      0.058627
   5686 C4         75.2600   74.4900   58.9400 c3       259 PET      0.058627
   5687 O1         70.9800   66.6200   59.4500 os       259 PET     -0.411922
   5688 O2         72.4500   65.1800   58.6200 o        259 PET     -0.591068
   5689 O3         76.9300   70.7100   59.3000 o        259 PET     -0.591068
   5690 O4         75.0900   72.0900   59.1300 os       259 PET     -0.411922
   5691 HA2        74.8700   66.3400   58.1300 ha       259 PET      0.129090
   5692 HA3        76.4100   68.3700   58.6000 ha       259 PET      0.145907
   5693 HA4        71.6400   68.8600   59.4700 ha       259 PET      0.145907
   5694 HA5        73.1500   70.7400   59.8300 ha       259 PET      0.129090
   5695 H31        76.3500   73.3500   60.2400 h1       259 PET      0.097188
   5696 H32        76.8500   73.1000   58.5400 h1       259 PET      0.097188
   5697 H41        74.4900   74.6400   59.7000 h1       259 PET      0.097188
   5698 H42        74.6600   74.4000   58.0300 h1       259 PET      0.097188
   5699 C1         75.8000   76.8400   58.6400 c        260 PET      0.825469
   5700 CA1        77.0100   77.6900   58.1800 ca       260 PET     -0.163574
   5701 CA2        78.1800   77.0800   57.6700 ca       260 PET     -0.108363
   5702 CA3        79.2000   77.9100   57.1500 ca       260 PET     -0.078542
   5703 CA4        76.9200   79.1200   58.1000 ca       260 PET     -0.078542
   5704 CA5        77.9900   79.8900   57.6000 ca       260 PET     -0.108363
   5705 CA6        79.1700   79.2800   57.1600 ca       260 PET     -0.163574
   5706 C2         80.4000   79.9500   56.6400 c        260 PET      0.825469
   5707 C3         81.7300   81.9600   56.6400 c3       260 PET      0.058627
   5708 C4         81.4400   83.4800   56.9100 c3       260 PET      0.058627
   5709 O1         76.1800   75.5400   58.7400 os       260 PET     -0.411922
   5710 O2         74.6400   77.1800   58.7800 o        260 PET     -0.591068
   5711 O3         81.2700   79.2500   56.1800 o        260 PET     -0.591068
   5712 O4         80.4400   81.3100   56.7900 os       260 PET     -0.411922
   5713 HA2        78.3300   76.0100   57.6000 ha       260 PET      0.129090
   5714 HA3        80.1200   77.4000   56.9100 ha       260 PET      0.145907
   5715 HA4        75.9300   79.5100   58.3000 ha       260 PET      0.145907
   5716 HA5        77.8000   80.9600   57.5200 ha       260 PET      0.129090
   5717 H31        82.5300   81.5800   57.2800 h1       260 PET      0.097188
   5718 H32        82.1100   81.9400   55.6000 h1       260 PET      0.097188
   5719 H41        81.5900   83.6400   57.9800 h1       260 PET      0.097188
   5720 H42        80.4600   83.7600   56.5200 h1       260 PET      0.097188
   5721 C1          3.6400    4.3600   56.3900 c        261 PET      0.825469
   5722 CA1         4.3800    5.3700   55.6300 ca       261 PET     -0.163574
   5723 CA2         5.7400    5.5000   55.8100 ca       261 PET     -0.108363
   5724 CA3         6.5400    6.2800   54.9500 ca       261 PET     -0.078542
   5725 CA4         3.8000    5.9000   54.4500 ca       261 PET     -0.078542
   5726 CA5         4.5700    6.6500   53.6000 ca       261 PET     -0.108363
   5727 CA6         5.9700    6.8000   53.7600 ca       261 PET     -0.163574
   5728 C2          6.8200    7.3000   52.5400 c        261 PET      0.825469
   5729 C3          9.1700    7.3500   51.8300 c3       261 PET      0.058627
   5730 C4          9.7600    8.7600   52.2100 c3       261 PET      0.058627
   5731 O1          2.3100    4.3200   56.1700 os       261 PET     -0.411922
   5732 O2          4.1300    3.5100   57.0900 o        261 PET     -0.591068
   5733 O3          6.4000    7.7200   51.5300 o        261 PET     -0.591068
   5734 O4          8.1700    7.0100   52.8000 os       261 PET     -0.411922
   5735 HA2         6.2300    4.9900   56.6400 ha       261 PET      0.129090
   5736 HA3         7.6100    6.3000   55.1500 ha       261 PET      0.145907
   5737 HA4         2.7400    5.8800   54.2100 ha       261 PET      0.145907
   5738 HA5         4.1600    7.0900   52.7000 ha       261 PET      0.129090
   5739 H31         9.9900    6.6300   51.7900 h1       261 PET      0.097188
   5740 H32         8.6700    7.4200   50.8500 h1       261 PET      0.097188
   5741 H41         9.4000    8.9500   53.2300 h1       261 PET      0.097188
   5742 H42         9.2700    9.5400   51.6100 h1       261 PET      0.097188
   5743 C1         11.8700    9.8300   52.2800 c        262 PET      0.825469
   5744 CA1        13.4000    9.6800   52.3300 ca       262 PET     -0.163574
   5745 CA2        14.1500   10.8800   52.6300 ca       262 PET     -0.108363
   5746 CA3        15.5500   10.8800   52.5100 ca       262 PET     -0.078542
   5747 CA4        14.0200    8.5100   51.9000 ca       262 PET     -0.078542
   5748 CA5        15.4700    8.5000   51.8600 ca       262 PET     -0.108363
   5749 CA6        16.2400    9.6700   52.1500 ca       262 PET     -0.163574
   5750 C2         17.7800    9.6200   52.0800 c        262 PET      0.825469
   5751 C3         19.7600    8.2500   51.7400 c3       262 PET      0.058627
   5752 C4         20.4000    8.4000   53.1500 c3       262 PET      0.058627
   5753 O1         11.1900    8.6700   52.0600 os       262 PET     -0.411922
   5754 O2         11.2700   10.8700   52.5900 o        262 PET     -0.591068
   5755 O3         18.4600   10.6200   52.1800 o        262 PET     -0.591068
   5756 O4         18.3700    8.4000   51.8900 os       262 PET     -0.411922
   5757 HA2        13.6800   11.8500   52.7800 ha       262 PET      0.129090
   5758 HA3        16.2300   11.7000   52.7200 ha       262 PET      0.145907
   5759 HA4        13.4600    7.6000   51.6900 ha       262 PET      0.145907
   5760 HA5        15.9800    7.6000   51.5300 ha       262 PET      0.129090
   5761 H31        19.9500    7.2800   51.2700 h1       262 PET      0.097188
   5762 H32        20.0500    8.9800   50.9700 h1       262 PET      0.097188
   5763 H41        20.0900    7.5800   53.8100 h1       262 PET      0.097188
   5764 H42        20.1100    9.3400   53.6200 h1       262 PET      0.097188
   5765 C1         22.6500    9.1900   52.3500 c        263 PET      0.825469
   5766 CA1        24.1800    8.7800   52.3400 ca       263 PET     -0.163574
   5767 CA2        24.5700    7.4100   52.3800 ca       263 PET     -0.108363
   5768 CA3        25.9400    7.0600   52.4900 ca       263 PET     -0.078542
   5769 CA4        25.2100    9.7800   52.3200 ca       263 PET     -0.078542
   5770 CA5        26.5500    9.4400   52.4100 ca       263 PET     -0.108363
   5771 CA6        26.9400    8.0900   52.5400 ca       263 PET     -0.163574
   5772 C2         28.3900    7.6800   52.5800 c        263 PET      0.825469
   5773 C3         30.7400    8.2700   52.3800 c3       263 PET      0.058627
   5774 C4         31.3900    8.4200   53.8000 c3       263 PET      0.058627
   5775 O1         21.8500    8.3600   53.0800 os       263 PET     -0.411922
   5776 O2         22.2600   10.0600   51.5500 o        263 PET     -0.591068
   5777 O3         28.6500    6.5300   52.7100 o        263 PET     -0.591068
   5778 O4         29.3300    8.6300   52.5600 os       263 PET     -0.411922
   5779 HA2        23.8300    6.6200   52.2900 ha       263 PET      0.129090
   5780 HA3        26.2800    6.0300   52.4700 ha       263 PET      0.145907
   5781 HA4        24.9800   10.8300   52.1800 ha       263 PET      0.145907
   5782 HA5        27.2500   10.2700   52.4000 ha       263 PET      0.129090
   5783 H31        30.8100    7.2800   51.9200 h1       263 PET      0.097188
   5784 H32        31.2900    8.9300   51.7000 h1       263 PET      0.097188
   5785 H41        31.0100    7.7500   54.5700 h1       263 PET      0.097188
   5786 H42        31.3000    9.4600   54.1500 h1       263 PET      0.097188
   5787 C1         33.7200    8.9900   53.0000 c        264 PET      0.825469
   5788 CA1        35.0600    8.3700   52.7800 ca       264 PET     -0.163574
   5789 CA2        36.1000    9.1900   52.4000 ca       264 PET     -0.108363
   5790 CA3        37.3900    8.7300   52.2600 ca       264 PET     -0.078542
   5791 CA4        35.3200    6.9900   52.9700 ca       264 PET     -0.078542
   5792 CA5        36.5800    6.4400   52.6600 ca       264 PET     -0.108363
   5793 CA6        37.6800    7.3300   52.3200 ca       264 PET     -0.163574
   5794 C2         39.0900    6.7900   52.3200 c        264 PET      0.825469
   5795 C3         41.3800    7.0500   52.0600 c3       264 PET      0.058627
   5796 C4         42.4600    8.0500   52.3900 c3       264 PET      0.058627
   5797 O1         32.8600    8.1800   53.6200 os       264 PET     -0.411922
   5798 O2         33.3600   10.0400   52.4600 o        264 PET     -0.591068
   5799 O3         39.2600    5.5500   52.3300 o        264 PET     -0.591068
   5800 O4         40.1300    7.7000   52.2400 os       264 PET     -0.411922
   5801 HA2        35.9300   10.2500   52.2500 ha       264 PET      0.129090
   5802 HA3        38.1800    9.4300   52.0300 ha       264 PET      0.145907
   5803 HA4        34.5200    6.3000   53.2400 ha       264 PET      0.145907
   5804 HA5        36.7900    5.3800   52.5800 ha       264 PET      0.129090
   5805 H31        41.6100    6.2300   52.7600 h1       264 PET      0.097188
   5806 H32        41.4400    6.6500   51.0400 h1       264 PET      0.097188
   5807 H41        42.2200    8.3900   53.4100 h1       264 PET      0.097188
   5808 H42        42.2600    8.9300   51.7700 h1       264 PET      0.097188
   5809 C1         44.9300    8.1600   52.6000 c        265 PET      0.825469
   5810 CA1        46.2000    7.4000   52.3900 ca       265 PET     -0.163574
   5811 CA2        46.1900    6.0800   52.2900 ca       265 PET     -0.108363
   5812 CA3        47.3700    5.3500   52.2000 ca       265 PET     -0.078542
   5813 CA4        47.4400    8.1000   52.3700 ca       265 PET     -0.078542
   5814 CA5        48.6300    7.4000   52.1400 ca       265 PET     -0.108363
   5815 CA6        48.6600    6.0000   52.1900 ca       265 PET     -0.163574
   5816 C2         49.8700    5.1700   52.1300 c        265 PET      0.825469
   5817 C3         52.2600    5.1000   52.1100 c3       265 PET      0.058627
   5818 C4         53.4600    6.0500   51.9900 c3       265 PET      0.058627
   5819 O1         43.7600    7.5100   52.1400 os       265 PET     -0.411922
   5820 O2         44.8900    9.2600   53.1300 o        265 PET     -0.591068
   5821 O3         49.8600    3.9300   52.1400 o        265 PET     -0.591068
   5822 O4         51.0200    5.8900   52.2900 os       265 PET     -0.411922
   5823 HA2        45.2800    5.4900   52.3300 ha       265 PET      0.129090
   5824 HA3        47.2600    4.2800   52.1200 ha       265 PET      0.145907
   5825 HA4        47.4700    9.1900   52.4000 ha       265 PET      0.145907
   5826 HA5        49.5400    7.9900   52.1800 ha       265 PET      0.129090
   5827 H31        52.4300    4.4400   52.9600 h1       265 PET      0.097188
   5828 H32        52.2800    4.5800   51.1500 h1       265 PET      0.097188
   5829 H41        53.7300    6.0800   50.9300 h1       265 PET      0.097188
   5830 H42        54.3800    5.7100   52.4800 h1       265 PET      0.097188
   5831 C1         54.0200    8.3500   52.4000 c        266 PET      0.825469
   5832 CA1        53.3100    9.6900   52.2700 ca       266 PET     -0.163574
   5833 CA2        54.0500   10.9000   52.2100 ca       266 PET     -0.108363
   5834 CA3        53.4100   12.1000   52.1500 ca       266 PET     -0.078542
   5835 CA4        51.9300    9.7800   52.2300 ca       266 PET     -0.078542
   5836 CA5        51.2700   11.0500   52.2100 ca       266 PET     -0.108363
   5837 CA6        52.0400   12.2000   52.2500 ca       266 PET     -0.163574
   5838 C2         51.3700   13.5500   52.2800 c        266 PET      0.825469
   5839 C3         49.2600   14.7000   52.5100 c3       266 PET      0.058627
   5840 C4         49.2500   15.1900   53.9800 c3       266 PET      0.058627
   5841 O1         53.0900    7.3100   52.5100 os       266 PET     -0.411922
   5842 O2         55.2600    8.2600   52.4300 o        266 PET     -0.591068
   5843 O3         51.8600   14.6400   51.9900 o        266 PET     -0.591068
   5844 O4         49.9800   13.4300   52.4100 os       266 PET     -0.411922
   5845 HA2        55.1300   10.9000   52.1300 ha       266 PET      0.129090
   5846 HA3        53.9300   13.0400   52.0000 ha       266 PET      0.145907
   5847 HA4        51.3900    8.8400   52.1100 ha       266 PET      0.145907
   5848 HA5        50.1800   11.0200   52.1600 ha       266 PET      0.129090
   5849 H31        49.6800   15.4400   51.8200 h1       266 PET      0.097188
   5850 H32        48.2100   14.5700   52.2200 h1       266 PET      0.097188
   5851 H41        48.5100   14.4800   54.3600 h1       266 PET      0.097188
   5852 H42        48.7600   16.1700   54.1000 h1       266 PET      0.097188
   5853 C1         50.4300   14.9200   56.0400 c        267 PET      0.825469
   5854 CA1        51.6500   14.2300   56.6700 ca       267 PET     -0.163574
   5855 CA2        52.7800   13.8900   55.9000 ca       267 PET     -0.108363
   5856 CA3        53.9500   13.3600   56.4900 ca       267 PET     -0.078542
   5857 CA4        51.6600   14.0500   58.0500 ca       267 PET     -0.078542
   5858 CA5        52.8600   13.5100   58.6800 ca       267 PET     -0.108363
   5859 CA6        54.0100   13.2000   57.9100 ca       267 PET     -0.163574
   5860 C2         55.2600   12.6100   58.5500 c        267 PET      0.825469
   5861 C3         57.5900   12.9400   58.8000 c3       267 PET      0.058627
   5862 C4         57.4800   13.9500   59.9100 c3       267 PET      0.058627
   5863 O1         50.4900   15.0100   54.6700 os       267 PET     -0.411922
   5864 O2         49.4200   15.2400   56.6600 o        267 PET     -0.591068
   5865 O3         55.1500   11.8500   59.4900 o        267 PET     -0.591068
   5866 O4         56.3800   13.0200   58.0100 os       267 PET     -0.411922
   5867 HA2        52.8600   14.1100   54.8400 ha       267 PET      0.129090
   5868 HA3        54.7500   12.9500   55.8700 ha       267 PET      0.145907
   5869 HA4        50.7900   14.3400   58.6200 ha       267 PET      0.145907
   5870 HA5        52.7700   13.2700   59.7400 ha       267 PET      0.129090
   5871 H31        57.7300   11.9300   59.2100 h1       267 PET      0.097188
   5872 H32        58.4000   13.2500   58.1200 h1       267 PET      0.097188
   5873 H41        58.4800   14.3600   60.1300 h1       267 PET      0.097188
   5874 H42        56.9600   13.5400   60.7800 h1       267 PET      0.097188
   5875 C1         57.1100   15.9400   58.5000 c        268 PET      0.825469
   5876 CA1        56.0600   16.9400   58.1500 ca       268 PET     -0.163574
   5877 CA2        54.6500   16.7200   58.3200 ca       268 PET     -0.108363
   5878 CA3        53.7000   17.6600   57.8900 ca       268 PET     -0.078542
   5879 CA4        56.4200   18.0400   57.4300 ca       268 PET     -0.078542
   5880 CA5        55.5300   19.0200   56.9900 ca       268 PET     -0.108363
   5881 CA6        54.1500   18.8500   57.3000 ca       268 PET     -0.163574
   5882 C2         53.1100   19.8500   57.1300 c        268 PET      0.825469
   5883 C3         52.6900   21.9900   56.1500 c3       268 PET      0.058627
   5884 C4         53.4400   23.3000   55.7300 c3       268 PET      0.058627
   5885 O1         56.6700   15.1000   59.5400 os       268 PET     -0.411922
   5886 O2         58.0900   15.8300   57.8000 o        268 PET     -0.591068
   5887 O3         52.0300   19.8600   57.6700 o        268 PET     -0.591068
   5888 O4         53.5800   20.9100   56.4000 os       268 PET     -0.411922
   5889 HA2        54.2700   15.7700   58.6900 ha       268 PET      0.129090
   5890 HA3        52.6300   17.4800   57.9800 ha       268 PET      0.145907
   5891 HA4        57.4900   18.2000   57.3400 ha       268 PET      0.145907
   5892 HA5        55.9800   19.9200   56.5900 ha       268 PET      0.129090
   5893 H31        52.0300   21.7000   55.3200 h1       268 PET      0.097188
   5894 H32        52.0400   22.1400   57.0200 h1       268 PET      0.097188
   5895 H41        52.7200   24.1200   55.6600 h1       268 PET      0.097188
   5896 H42        53.7500   23.2600   54.6800 h1       268 PET      0.097188
   5897 C1         54.3600   23.8600   57.9300 c        269 PET      0.825469
   5898 CA1        55.6400   23.8800   58.7600 ca       269 PET     -0.163574
   5899 CA2        56.8600   23.6100   58.1500 ca       269 PET     -0.108363
   5900 CA3        58.0900   23.8200   58.8400 ca       269 PET     -0.078542
   5901 CA4        55.6100   24.2000   60.1400 ca       269 PET     -0.078542
   5902 CA5        56.8000   24.3000   60.8700 ca       269 PET     -0.108363
   5903 CA6        58.0400   24.1800   60.2400 ca       269 PET     -0.163574
   5904 C2         59.2800   24.2700   60.9900 c        269 PET      0.825469
   5905 C3         60.2500   24.6600   63.1100 c3       269 PET      0.058627
   5906 C4         60.0300   24.4000   64.6800 c3       269 PET      0.058627
   5907 O1         54.5200   23.5400   56.6400 os       269 PET     -0.411922
   5908 O2         53.2500   24.0100   58.4300 o        269 PET     -0.591068
   5909 O3         60.3900   24.3400   60.4700 o        269 PET     -0.591068
   5910 O4         59.1700   24.1200   62.3300 os       269 PET     -0.411922
   5911 HA2        56.9500   23.4100   57.0900 ha       269 PET      0.129090
   5912 HA3        59.0600   23.7500   58.3700 ha       269 PET      0.145907
   5913 HA4        54.6900   24.2700   60.7200 ha       269 PET      0.145907
   5914 HA5        56.7800   24.5600   61.9200 ha       269 PET      0.129090
   5915 H31        61.2000   24.2000   62.8400 h1       269 PET      0.097188
   5916 H32        60.2500   25.7300   62.8700 h1       269 PET      0.097188
   5917 H41        60.3300   25.2300   65.3200 h1       269 PET      0.097188
   5918 H42        60.7100   23.5900   64.9500 h1       269 PET      0.097188
   5919 C1         57.6400   24.9000   64.8000 c        270 PET      0.825469
   5920 CA1        56.2700   24.3200   65.0900 ca       270 PET     -0.163574
   5921 CA2        55.2300   25.1900   64.7800 ca       270 PET     -0.108363
   5922 CA3        53.8600   24.8600   65.0100 ca       270 PET     -0.078542
   5923 CA4        55.9200   22.9800   65.4300 ca       270 PET     -0.078542
   5924 CA5        54.5900   22.6300   65.6300 ca       270 PET     -0.108363
   5925 CA6        53.5600   23.5400   65.3400 ca       270 PET     -0.163574
   5926 C2         52.1600   23.1000   65.2900 c        270 PET      0.825469
   5927 C3         50.7600   21.1500   65.8900 c3       270 PET      0.058627
   5928 C4         50.8900   19.9200   66.6700 c3       270 PET      0.058627
   5929 O1         58.6700   24.0500   65.0600 os       270 PET     -0.411922
   5930 O2         57.7600   25.9300   64.2100 o        270 PET     -0.591068
   5931 O3         51.2100   23.7800   64.9300 o        270 PET     -0.591068
   5932 O4         51.9700   21.8800   66.0300 os       270 PET     -0.411922
   5933 HA2        55.4300   26.1900   64.4200 ha       270 PET      0.129090
   5934 HA3        53.0700   25.5900   64.8800 ha       270 PET      0.145907
   5935 HA4        56.7100   22.2300   65.4300 ha       270 PET      0.145907
   5936 HA5        54.3400   21.6200   65.9600 ha       270 PET      0.129090
   5937 H31        49.9100   21.8100   66.0800 h1       270 PET      0.097188
   5938 H32        50.7100   20.8600   64.8300 h1       270 PET      0.097188
   5939 H41        50.2800   20.0000   67.5900 h1       270 PET      0.097188
   5940 H42        50.8400   19.0000   66.0900 h1       270 PET      0.097188
   5941 C1         33.2600   13.3300   67.4600 c        271 PET      0.825469
   5942 CA1        34.6400   12.6400   67.2600 ca       271 PET     -0.163574
   5943 CA2        35.5100   12.9500   66.1400 ca       271 PET     -0.108363
   5944 CA3        36.8100   12.5300   65.9800 ca       271 PET     -0.078542
   5945 CA4        35.2900   11.8600   68.3100 ca       271 PET     -0.078542
   5946 CA5        36.6100   11.3600   68.1300 ca       271 PET     -0.108363
   5947 CA6        37.3800   11.6700   66.9900 ca       271 PET     -0.163574
   5948 C2         38.8400   11.2700   66.8400 c        271 PET      0.825469
   5949 C3         40.3100    9.3000   67.1100 c3       271 PET      0.058627
   5950 C4         41.4800   10.0400   67.9600 c3       271 PET      0.058627
   5951 O1         32.6500   13.9700   66.4200 os       271 PET     -0.411922
   5952 O2         32.7100   13.1900   68.5300 o        271 PET     -0.591068
   5953 O3         39.6900   12.0400   66.4300 o        271 PET     -0.591068
   5954 O4         39.1000    9.9900   67.2500 os       271 PET     -0.411922
   5955 HA2        35.1200   13.7000   65.4600 ha       271 PET      0.129090
   5956 HA3        37.4800   12.9800   65.2500 ha       271 PET      0.145907
   5957 HA4        34.7600   11.7200   69.2400 ha       271 PET      0.145907
   5958 HA5        37.0900   10.7000   68.8500 ha       271 PET      0.129090
   5959 H31        40.1700    8.3400   67.6200 h1       271 PET      0.097188
   5960 H32        40.5800    9.1800   66.0500 h1       271 PET      0.097188
   5961 H41        41.0900   10.4700   68.9000 h1       271 PET      0.097188
   5962 H42        41.9200   10.9600   67.5600 h1       271 PET      0.097188
   5963 C1         43.2800    8.5400   67.1600 c        272 PET      0.825469
   5964 CA1        44.3100    7.5400   67.6200 ca       272 PET     -0.163574
   5965 CA2        45.6400    7.5200   67.0900 ca       272 PET     -0.108363
   5966 CA3        46.5500    6.5200   67.4500 ca       272 PET     -0.078542
   5967 CA4        43.9700    6.5900   68.5300 ca       272 PET     -0.078542
   5968 CA5        44.8800    5.6300   69.0000 ca       272 PET     -0.108363
   5969 CA6        46.1700    5.5200   68.4200 ca       272 PET     -0.163574
   5970 C2         47.1000    4.3000   68.6900 c        272 PET      0.825469
   5971 C3         49.3100    3.3600   68.5900 c3       272 PET      0.058627
   5972 C4         50.7200    3.9100   68.5500 c3       272 PET      0.058627
   5973 O1         42.4900    9.0300   68.2100 os       272 PET     -0.411922
   5974 O2         43.1400    8.8000   65.9600 o        272 PET     -0.591068
   5975 O3         46.6200    3.2800   69.1700 o        272 PET     -0.591068
   5976 O4         48.4000    4.4500   68.3400 os       272 PET     -0.411922
   5977 HA2        45.9600    8.2700   66.3800 ha       272 PET      0.129090
   5978 HA3        47.5400    6.4600   67.0000 ha       272 PET      0.145907
   5979 HA4        42.9200    6.4600   68.7500 ha       272 PET      0.145907
   5980 HA5        44.6200    4.7900   69.6400 ha       272 PET      0.129090
   5981 H31        49.0700    2.9700   69.5800 h1       272 PET      0.097188
   5982 H32        49.2100    2.5100   67.9000 h1       272 PET      0.097188
   5983 H41        50.8500    4.5500   69.4400 h1       272 PET      0.097188
   5984 H42        50.9400    4.4900   67.6500 h1       272 PET      0.097188
   5985 C1         52.9200   83.0900   68.7200 c        273 PET      0.825469
   5986 CA1        53.8500   81.8900   68.9800 ca       273 PET     -0.163574
   5987 CA2        53.2900   80.6200   68.9500 ca       273 PET     -0.108363
   5988 CA3        54.1900   79.4900   68.9500 ca       273 PET     -0.078542
   5989 CA4        55.2300   82.0700   69.0300 ca       273 PET     -0.078542
   5990 CA5        56.0500   80.9900   69.1600 ca       273 PET     -0.108363
   5991 CA6        55.6000   79.6800   69.0200 ca       273 PET     -0.163574
   5992 C2         56.5700   78.4800   68.9700 c        273 PET      0.825469
   5993 C3         58.8400   77.7600   68.8500 c3       273 PET      0.058627
   5994 C4         60.3100   78.2200   68.7200 c3       273 PET      0.058627
   5995 O1         51.6300   82.8100   68.5700 os       273 PET     -0.411922
   5996 O2         53.2800   84.2600   68.7100 o        273 PET     -0.591068
   5997 O3         56.1500   77.3400   69.0000 o        273 PET     -0.591068
   5998 O4         57.8700   78.8300   68.7400 os       273 PET     -0.411922
   5999 HA2        52.2300   80.4100   68.8400 ha       273 PET      0.129090
   6000 HA3        53.8200   78.4700   69.0400 ha       273 PET      0.145907
   6001 HA4        55.6800   83.0600   69.0500 ha       273 PET      0.145907
   6002 HA5        57.1000   81.2100   69.2800 ha       273 PET      0.129090
   6003 H31        58.7300   77.2700   69.8200 h1       273 PET      0.097188
   6004 H32        58.5700   76.9800   68.1300 h1       273 PET      0.097188
   6005 H41        60.5500   78.9400   69.5200 h1       273 PET      0.097188
   6006 H42        60.6000   78.8200   67.8500 h1       273 PET      0.097188
   6007 C1         62.4600   77.2500   68.9500 c        274 PET      0.825469
   6008 CA1        63.2100   75.9800   68.9200 ca       274 PET     -0.163574
   6009 CA2        64.6400   75.9500   68.9900 ca       274 PET     -0.108363
   6010 CA3        65.3000   74.7100   68.8900 ca       274 PET     -0.078542
   6011 CA4        62.5200   74.7800   68.8000 ca       274 PET     -0.078542
   6012 CA5        63.2100   73.5300   68.7700 ca       274 PET     -0.108363
   6013 CA6        64.6000   73.4500   68.7400 ca       274 PET     -0.163574
   6014 C2         65.3500   72.1200   68.8000 c        274 PET      0.825469
   6015 C3         67.5600   71.1300   68.6000 c3       274 PET      0.058627
   6016 C4         68.9400   71.7100   68.7300 c3       274 PET      0.058627
   6017 O1         61.1300   77.0600   68.8600 os       274 PET     -0.411922
   6018 O2         62.9600   78.3300   69.1500 o        274 PET     -0.591068
   6019 O3         64.6900   71.1300   68.9300 o        274 PET     -0.591068
   6020 O4         66.7100   72.2500   68.6800 os       274 PET     -0.411922
   6021 HA2        65.1700   76.8900   68.8800 ha       274 PET      0.129090
   6022 HA3        66.3800   74.7000   68.8000 ha       274 PET      0.145907
   6023 HA4        61.4400   74.7200   68.9500 ha       274 PET      0.145907
   6024 HA5        62.5700   72.6500   68.8300 ha       274 PET      0.129090
   6025 H31        67.4600   70.3900   69.4000 h1       274 PET      0.097188
   6026 H32        67.4200   70.5800   67.6600 h1       274 PET      0.097188
   6027 H41        69.0400   72.2000   69.7000 h1       274 PET      0.097188
   6028 H42        69.1500   72.4400   67.9400 h1       274 PET      0.097188
   6029 C1         71.1600   70.9100   68.7500 c        275 PET      0.825469
   6030 CA1        72.0600   69.7900   68.4800 ca       275 PET     -0.163574
   6031 CA2        71.6200   68.4200   68.1000 ca       275 PET     -0.108363
   6032 CA3        72.5000   67.3700   68.0600 ca       275 PET     -0.078542
   6033 CA4        73.4300   69.9500   68.8000 ca       275 PET     -0.078542
   6034 CA5        74.2600   68.8800   68.8200 ca       275 PET     -0.108363
   6035 CA6        73.8600   67.6000   68.4600 ca       275 PET     -0.163574
   6036 C2         74.8800   66.4400   68.3800 c        275 PET      0.825469
   6037 C3         77.2400   65.8800   68.8300 c3       275 PET      0.058627
   6038 C4         77.5400   65.0000   67.5300 c3       275 PET      0.058627
   6039 O1         69.8400   70.5700   68.6200 os       275 PET     -0.411922
   6040 O2         71.5600   72.0600   69.0500 o        275 PET     -0.591068
   6041 O3         74.5600   65.2900   68.1600 o        275 PET     -0.591068
   6042 O4         76.2000   66.8300   68.4900 os       275 PET     -0.411922
   6043 HA2        70.5700   68.3400   67.8500 ha       275 PET      0.129090
   6044 HA3        72.1200   66.3900   67.7800 ha       275 PET      0.145907
   6045 HA4        73.8700   70.8900   69.1300 ha       275 PET      0.145907
   6046 HA5        75.3100   68.9200   69.1000 ha       275 PET      0.129090
   6047 H31        78.1700   66.3900   69.1100 h1       275 PET      0.097188
   6048 H32        76.9000   65.1900   69.6100 h1       275 PET      0.097188
   6049 H41        77.1600   65.5500   66.6500 h1       275 PET      0.097188
   6050 H42        76.9600   64.0800   67.6700 h1       275 PET      0.097188
   6051 C1         -0.3700   63.8000   68.1800 c        276 PET      0.825469
   6052 CA1         1.1400   63.6900   68.0000 ca       276 PET     -0.163574
   6053 CA2         1.9200   62.7600   68.7800 ca       276 PET     -0.108363
   6054 CA3         3.3000   62.7800   68.8000 ca       276 PET     -0.078542
   6055 CA4         1.7600   64.5600   67.1700 ca       276 PET     -0.078542
   6056 CA5         3.1600   64.6500   67.2400 ca       276 PET     -0.108363
   6057 CA6         3.9700   63.8300   68.1000 ca       276 PET     -0.163574
   6058 C2          5.5200   63.9100   67.9800 c        276 PET      0.825469
   6059 C3          7.3000   64.9200   66.7800 c3       276 PET      0.058627
   6060 C4          7.8600   65.8400   67.9000 c3       276 PET      0.058627
   6061 O1         -1.0500   64.7200   67.4000 os       276 PET     -0.411922
   6062 O2         -0.9600   62.9600   68.8200 o        276 PET     -0.591068
   6063 O3          6.3600   63.2900   68.6300 o        276 PET     -0.591068
   6064 O4          5.8800   64.7800   66.9900 os       276 PET     -0.411922
   6065 HA2         1.4300   62.0300   69.4200 ha       276 PET      0.129090
   6066 HA3         3.9100   62.0300   69.3000 ha       276 PET      0.145907
   6067 HA4         1.2600   65.2100   66.4600 ha       276 PET      0.145907
   6068 HA5         3.5300   65.3500   66.4900 ha       276 PET      0.129090
   6069 H31         7.8100   63.9500   66.8300 h1       276 PET      0.097188
   6070 H32         7.5200   65.2600   65.7600 h1       276 PET      0.097188
   6071 H41         7.4700   65.5800   68.9000 h1       276 PET      0.097188
   6072 H42         7.7100   66.9100   67.7100 h1       276 PET      0.097188
   6073 C1         10.0200   66.5800   68.5600 c        277 PET      0.825469
   6074 CA1        11.5100   66.2000   68.3800 ca       277 PET     -0.163574
   6075 CA2        12.5300   66.8700   69.1000 ca       277 PET     -0.108363
   6076 CA3        13.8800   66.5500   68.9700 ca       277 PET     -0.078542
   6077 CA4        11.9000   65.1000   67.5400 ca       277 PET     -0.078542
   6078 CA5        13.2600   64.7300   67.4200 ca       277 PET     -0.108363
   6079 CA6        14.2300   65.4300   68.1600 ca       277 PET     -0.163574
   6080 C2         15.6600   65.0600   68.0000 c        277 PET      0.825469
   6081 C3         17.9600   65.8800   68.3400 c3       277 PET      0.058627
   6082 C4         18.5200   67.2400   68.6300 c3       277 PET      0.058627
   6083 O1          9.2400   65.6200   67.8700 os       277 PET     -0.411922
   6084 O2          9.6900   67.5500   69.1200 o        277 PET     -0.591068
   6085 O3         16.0200   63.9600   67.6600 o        277 PET     -0.591068
   6086 O4         16.5100   66.1200   68.3100 os       277 PET     -0.411922
   6087 HA2        12.2700   67.7000   69.7500 ha       277 PET      0.129090
   6088 HA3        14.6400   67.0800   69.5400 ha       277 PET      0.145907
   6089 HA4        11.1600   64.5000   67.0200 ha       277 PET      0.145907
   6090 HA5        13.5700   63.8100   66.9400 ha       277 PET      0.129090
   6091 H31        18.1100   65.1200   69.1200 h1       277 PET      0.097188
   6092 H32        18.2400   65.5200   67.3400 h1       277 PET      0.097188
   6093 H41        18.1300   67.7100   69.5400 h1       277 PET      0.097188
   6094 H42        18.3000   67.9100   67.7800 h1       277 PET      0.097188
   6095 C1         20.8800   67.9700   68.5900 c        278 PET      0.825469
   6096 CA1        22.3500   67.5300   68.6000 ca       278 PET     -0.163574
   6097 CA2        22.6100   66.1800   68.8200 ca       278 PET     -0.108363
   6098 CA3        23.9600   65.7500   68.7400 ca       278 PET     -0.078542
   6099 CA4        23.3500   68.4400   68.3800 ca       278 PET     -0.078542
   6100 CA5        24.6400   68.0800   68.4600 ca       278 PET     -0.108363
   6101 CA6        25.0000   66.7100   68.6200 ca       278 PET     -0.163574
   6102 C2         26.4600   66.3600   68.4700 c        278 PET      0.825469
   6103 C3         27.7900   64.5300   67.5500 c3       278 PET      0.058627
   6104 C4         28.4900   64.3500   68.8900 c3       278 PET      0.058627
   6105 O1         19.9000   67.0700   68.8300 os       278 PET     -0.411922
   6106 O2         20.5400   69.0700   68.2400 o        278 PET     -0.591068
   6107 O3         27.4300   67.0200   68.8600 o        278 PET     -0.591068
   6108 O4         26.5400   65.1900   67.8000 os       278 PET     -0.411922
   6109 HA2        21.8500   65.4400   69.0600 ha       278 PET      0.129090
   6110 HA3        24.1400   64.7000   68.9300 ha       278 PET      0.145907
   6111 HA4        23.1700   69.4700   68.0600 ha       278 PET      0.145907
   6112 HA5        25.4400   68.8200   68.4600 ha       278 PET      0.129090
   6113 H31        27.6500   63.5200   67.1200 h1       278 PET      0.097188
   6114 H32        28.4000   65.1300   66.8800 h1       278 PET      0.097188
   6115 H41        27.7300   64.2500   69.6800 h1       278 PET      0.097188
   6116 H42        29.0500   65.2600   69.1300 h1       278 PET      0.097188
   6117 C1         28.9000   61.9800   68.8400 c        279 PET      0.825469
   6118 CA1        29.9500   60.9400   68.7900 ca       279 PET     -0.163574
   6119 CA2        29.6500   59.6000   68.8600 ca       279 PET     -0.108363
   6120 CA3        30.5800   58.6100   68.7400 ca       279 PET     -0.078542
   6121 CA4        31.3200   61.3100   68.6200 ca       279 PET     -0.078542
   6122 CA5        32.3000   60.3100   68.5100 ca       279 PET     -0.108363
   6123 CA6        31.9200   58.9300   68.5200 ca       279 PET     -0.163574
   6124 C2         32.9700   57.8400   68.4200 c        279 PET      0.825469
   6125 C3         35.1100   57.4400   67.4000 c3       279 PET      0.058627
   6126 C4         35.7900   56.9700   68.7100 c3       279 PET      0.058627
   6127 O1         29.3700   63.2700   68.8900 os       279 PET     -0.411922
   6128 O2         27.7700   61.6000   68.9800 o        279 PET     -0.591068
   6129 O3         32.8400   56.6800   68.8600 o        279 PET     -0.591068
   6130 O4         34.0400   58.2900   67.7400 os       279 PET     -0.411922
   6131 HA2        28.6200   59.2900   69.0400 ha       279 PET      0.129090
   6132 HA3        30.3000   57.5700   68.7200 ha       279 PET      0.145907
   6133 HA4        31.5500   62.3700   68.5200 ha       279 PET      0.145907
   6134 HA5        33.3400   60.5200   68.2800 ha       279 PET      0.129090
   6135 H31        34.6600   56.6000   66.8500 h1       279 PET      0.097188
   6136 H32        35.7500   58.0400   66.7500 h1       279 PET      0.097188
   6137 H41        35.4100   55.9800   68.9700 h1       279 PET      0.097188
   6138 H42        35.5400   57.5700   69.5900 h1       279 PET      0.097188
   6139 C1         37.7900   58.1100   68.5900 c        280 PET      0.825469
   6140 CA1        39.2500   57.8800   68.6100 ca       280 PET     -0.163574
   6141 CA2        39.8200   56.6200   68.7500 ca       280 PET     -0.108363
   6142 CA3        41.2000   56.5700   68.7300 ca       280 PET     -0.078542
   6143 CA4        40.1000   59.0500   68.6100 ca       280 PET     -0.078542
   6144 CA5        41.5000   58.9000   68.6800 ca       280 PET     -0.108363
   6145 CA6        42.0300   57.6900   68.6800 ca       280 PET     -0.163574
   6146 C2         43.5900   57.6000   68.7700 c        280 PET      0.825469
   6147 C3         45.3400   55.9100   68.6400 c3       280 PET      0.058627
   6148 C4         45.3400   54.3400   68.3000 c3       280 PET      0.058627
   6149 O1         37.1200   56.8700   68.5500 os       280 PET     -0.411922
   6150 O2         37.2400   59.1600   68.6900 o        280 PET     -0.591068
   6151 O3         44.3200   58.5200   68.8900 o        280 PET     -0.591068
   6152 O4         43.9800   56.3100   68.6600 os       280 PET     -0.411922
   6153 HA2        39.2200   55.7200   68.7400 ha       280 PET      0.129090
   6154 HA3        41.6800   55.6000   68.7800 ha       280 PET      0.145907
   6155 HA4        39.7300   60.0600   68.4400 ha       280 PET      0.145907
   6156 HA5        42.1100   59.7900   68.8400 ha       280 PET      0.129090
   6157 H31        45.8200   56.4800   67.8300 h1       280 PET      0.097188
   6158 H32        45.8200   56.1500   69.6000 h1       280 PET      0.097188
   6159 H41        44.4600   54.0000   67.7500 h1       280 PET      0.097188
   6160 H42        45.4200   53.6800   69.1800 h1       280 PET      0.097188
   6161 C1         47.7600   54.1600   68.2500 c        281 PET      0.825469
   6162 CA1        49.0200   54.1600   67.3600 ca       281 PET     -0.163574
   6163 CA2        50.2800   53.8500   67.8900 ca       281 PET     -0.108363
   6164 CA3        51.4000   53.7700   67.1100 ca       281 PET     -0.078542
   6165 CA4        49.0100   54.4400   65.9700 ca       281 PET     -0.078542
   6166 CA5        50.0600   54.3100   65.1200 ca       281 PET     -0.108363
   6167 CA6        51.3200   53.9900   65.6400 ca       281 PET     -0.163574
   6168 C2         52.4500   53.9500   64.6400 c        281 PET      0.825469
   6169 C3         54.7700   53.4800   64.3400 c3       281 PET      0.058627
   6170 C4         55.3000   54.8200   63.6700 c3       281 PET      0.058627
   6171 O1         46.5900   54.1700   67.5700 os       281 PET     -0.411922
   6172 O2         47.8600   54.1900   69.4700 o        281 PET     -0.591068
   6173 O3         52.3000   54.0000   63.4400 o        281 PET     -0.591068
   6174 O4         53.7200   53.8400   65.2300 os       281 PET     -0.411922
   6175 HA2        50.3100   53.5300   68.9300 ha       281 PET      0.129090
   6176 HA3        52.3700   53.5000   67.5200 ha       281 PET      0.145907
   6177 HA4        48.0700   54.7800   65.5500 ha       281 PET      0.145907
   6178 HA5        49.9400   54.4400   64.0500 ha       281 PET      0.129090
   6179 H31        55.5500   53.0200   64.9600 h1       281 PET      0.097188
   6180 H32        54.4300   52.8900   63.4800 h1       281 PET      0.097188
   6181 H41        54.8700   55.6700   64.2000 h1       281 PET      0.097188
   6182 H42        55.1100   54.7800   62.5900 h1       281 PET      0.097188
   6183 C1         57.1200   55.1100   65.2500 c        282 PET      0.825469
   6184 CA1        58.5500   54.6800   65.6500 ca       282 PET     -0.163574
   6185 CA2        59.2100   55.2500   66.7600 ca       282 PET     -0.108363
   6186 CA3        60.4400   54.7600   67.1900 ca       282 PET     -0.078542
   6187 CA4        59.2300   53.7800   64.7400 ca       282 PET     -0.078542
   6188 CA5        60.5900   53.4900   65.0700 ca       282 PET     -0.108363
   6189 CA6        61.2300   54.0000   66.2500 ca       282 PET     -0.163574
   6190 C2         62.6200   53.7000   66.5200 c        282 PET      0.825469
   6191 C3         64.7600   54.5000   67.3900 c3       282 PET      0.058627
   6192 C4         65.2400   53.6400   68.6500 c3       282 PET      0.058627
   6193 O1         56.7400   54.8900   63.9500 os       282 PET     -0.411922
   6194 O2         56.3400   55.6600   66.0600 o        282 PET     -0.591068
   6195 O3         63.1000   52.6700   66.0400 o        282 PET     -0.591068
   6196 O4         63.3200   54.6100   67.2400 os       282 PET     -0.411922
   6197 HA2        58.7500   55.9700   67.4300 ha       282 PET      0.129090
   6198 HA3        60.8600   55.2900   68.0400 ha       282 PET      0.145907
   6199 HA4        58.6400   53.3200   63.9500 ha       282 PET      0.145907
   6200 HA5        61.2600   52.8200   64.5500 ha       282 PET      0.129090
   6201 H31        65.2100   53.9800   66.5300 h1       282 PET      0.097188
   6202 H32        65.2500   55.4800   67.4000 h1       282 PET      0.097188
   6203 H41        64.6000   52.7600   68.7300 h1       282 PET      0.097188
   6204 H42        65.0200   54.2200   69.5600 h1       282 PET      0.097188
   6205 C1         67.5800   54.1700   68.5600 c        283 PET      0.825469
   6206 CA1        69.0200   53.5500   68.5900 ca       283 PET     -0.163574
   6207 CA2        69.1800   52.1500   68.6900 ca       283 PET     -0.108363
   6208 CA3        70.4400   51.6000   68.7100 ca       283 PET     -0.078542
   6209 CA4        70.1700   54.3800   68.5700 ca       283 PET     -0.078542
   6210 CA5        71.4300   53.7700   68.4700 ca       283 PET     -0.108363
   6211 CA6        71.6000   52.3600   68.5700 ca       283 PET     -0.163574
   6212 C2         73.0000   51.7700   68.5200 c        283 PET      0.825469
   6213 C3         75.4100   52.2200   68.6300 c3       283 PET      0.058627
   6214 C4         76.4200   53.4000   68.7700 c3       283 PET      0.058627
   6215 O1         66.5900   53.2800   68.5100 os       283 PET     -0.411922
   6216 O2         67.3900   55.3600   68.7500 o        283 PET     -0.591068
   6217 O3         73.2100   50.6100   68.2600 o        283 PET     -0.591068
   6218 O4         73.9900   52.6900   68.6800 os       283 PET     -0.411922
   6219 HA2        68.2700   51.5600   68.6100 ha       283 PET      0.129090
   6220 HA3        70.4900   50.5300   68.8400 ha       283 PET      0.145907
   6221 HA4        70.1400   55.4700   68.5900 ha       283 PET      0.145907
   6222 HA5        72.3300   54.3700   68.3400 ha       283 PET      0.129090
   6223 H31        75.5700   51.5700   69.4900 h1       283 PET      0.097188
   6224 H32        75.6600   51.6800   67.7100 h1       283 PET      0.097188
   6225 H41        76.4300   53.6400   69.8400 h1       283 PET      0.097188
   6226 H42        76.2100   54.3100   68.2000 h1       283 PET      0.097188
   6227 C1         -1.5800   51.8100   68.8600 c        284 PET      0.825469
   6228 CA1        -0.1200   51.8200   68.7000 ca       284 PET     -0.163574
   6229 CA2         0.5200   53.0400   68.4200 ca       284 PET     -0.108363
   6230 CA3         1.9400   52.9600   68.1200 ca       284 PET     -0.078542
   6231 CA4         0.6500   50.6600   68.8900 ca       284 PET     -0.078542
   6232 CA5         2.0400   50.6200   68.6700 ca       284 PET     -0.108363
   6233 CA6         2.6500   51.7800   68.1900 ca       284 PET     -0.163574
   6234 C2          4.1000   51.7800   67.7500 c        284 PET      0.825469
   6235 C3          6.1700   50.3400   67.6100 c3       284 PET      0.058627
   6236 C4          6.9800   50.7800   68.8200 c3       284 PET      0.058627
   6237 O1         -2.2600   52.9600   68.3800 os       284 PET     -0.411922
   6238 O2         -2.2000   50.9000   69.4000 o        284 PET     -0.591068
   6239 O3          4.7200   52.8500   67.5800 o        284 PET     -0.591068
   6240 O4          4.7300   50.5600   67.8100 os       284 PET     -0.411922
   6241 HA2        -0.1200   53.9200   68.3700 ha       284 PET      0.129090
   6242 HA3         2.3900   53.9300   67.9200 ha       284 PET      0.145907
   6243 HA4         0.1000   49.7700   69.1900 ha       284 PET      0.145907
   6244 HA5         2.5900   49.7000   68.8000 ha       284 PET      0.129090
   6245 H31         6.3500   49.2800   67.4300 h1       284 PET      0.097188
   6246 H32         6.6000   50.9000   66.7700 h1       284 PET      0.097188
   6247 H41         6.4600   50.3200   69.6700 h1       284 PET      0.097188
   6248 H42         7.0100   51.8600   68.9800 h1       284 PET      0.097188
   6249 C1          8.7200   49.1300   68.6700 c        285 PET      0.825469
   6250 CA1        10.2200   48.9400   68.4700 ca       285 PET     -0.163574
   6251 CA2        10.6800   47.7000   68.1100 ca       285 PET     -0.108363
   6252 CA3        12.0300   47.4700   67.8600 ca       285 PET     -0.078542
   6253 CA4        11.1700   49.9900   68.5500 ca       285 PET     -0.078542
   6254 CA5        12.5800   49.7700   68.3300 ca       285 PET     -0.108363
   6255 CA6        13.0100   48.5100   67.9100 ca       285 PET     -0.163574
   6256 C2         14.4400   48.2300   67.5500 c        285 PET      0.825469
   6257 C3         16.6300   49.0700   67.6200 c3       285 PET      0.058627
   6258 C4         17.4700   50.2000   68.3500 c3       285 PET      0.058627
   6259 O1          8.3500   50.4200   68.6800 os       285 PET     -0.411922
   6260 O2          7.8900   48.2700   68.8000 o        285 PET     -0.591068
   6261 O3         14.8300   47.0900   67.2100 o        285 PET     -0.591068
   6262 O4         15.2400   49.1900   67.9000 os       285 PET     -0.411922
   6263 HA2        10.0600   46.8400   67.8800 ha       285 PET      0.129090
   6264 HA3        12.3100   46.5100   67.4300 ha       285 PET      0.145907
   6265 HA4        10.7500   50.9600   68.8300 ha       285 PET      0.145907
   6266 HA5        13.2400   50.6300   68.1900 ha       285 PET      0.129090
   6267 H31        16.9700   48.0900   67.9700 h1       285 PET      0.097188
   6268 H32        16.8100   49.1700   66.5400 h1       285 PET      0.097188
   6269 H41        17.0300   50.3800   69.3400 h1       285 PET      0.097188
   6270 H42        17.3600   51.1600   67.8300 h1       285 PET      0.097188
   6271 C1         19.7700   50.6000   68.8800 c        286 PET      0.825469
   6272 CA1        21.1600   50.0100   68.9100 ca       286 PET     -0.163574
   6273 CA2        22.2600   50.8200   69.0200 ca       286 PET     -0.108363
   6274 CA3        23.5100   50.3700   68.6500 ca       286 PET     -0.078542
   6275 CA4        21.3600   48.6500   68.6200 ca       286 PET     -0.078542
   6276 CA5        22.6500   48.1200   68.3700 ca       286 PET     -0.108363
   6277 CA6        23.8200   49.0000   68.4500 ca       286 PET     -0.163574
   6278 C2         25.2100   48.4500   68.1700 c        286 PET      0.825469
   6279 C3         27.6100   49.1400   67.9000 c3       286 PET      0.058627
   6280 C4         27.8600   48.4600   66.5300 c3       286 PET      0.058627
   6281 O1         18.7800   49.7800   68.4800 os       286 PET     -0.411922
   6282 O2         19.5600   51.7900   69.1700 o        286 PET     -0.591068
   6283 O3         25.5300   47.2800   68.1300 o        286 PET     -0.591068
   6284 O4         26.1800   49.4000   68.0200 os       286 PET     -0.411922
   6285 HA2        22.0900   51.8900   69.1200 ha       286 PET      0.129090
   6286 HA3        24.3200   51.0800   68.8100 ha       286 PET      0.145907
   6287 HA4        20.5100   47.9800   68.4800 ha       286 PET      0.145907
   6288 HA5        22.8200   47.1000   68.0600 ha       286 PET      0.129090
   6289 H31        28.2200   50.0400   67.8000 h1       286 PET      0.097188
   6290 H32        28.0100   48.6000   68.7700 h1       286 PET      0.097188
   6291 H41        27.0600   48.7800   65.8500 h1       286 PET      0.097188
   6292 H42        27.6800   47.3900   66.7300 h1       286 PET      0.097188
   6293 C1         29.6500   49.8900   65.5700 c        287 PET      0.825469
   6294 CA1        31.1600   50.0100   65.3100 ca       287 PET     -0.163574
   6295 CA2        32.1100   49.0000   65.6500 ca       287 PET     -0.108363
   6296 CA3        33.4500   49.3000   65.5600 ca       287 PET     -0.078542
   6297 CA4        31.6200   51.2300   64.8600 ca       287 PET     -0.078542
   6298 CA5        32.9700   51.5200   64.8000 ca       287 PET     -0.108363
   6299 CA6        33.8900   50.6200   65.1400 ca       287 PET     -0.163574
   6300 C2         35.3600   50.9000   65.1300 c        287 PET      0.825469
   6301 C3         37.1600   52.5900   65.2800 c3       287 PET      0.058627
   6302 C4         37.1500   54.2100   65.2600 c3       287 PET      0.058627
   6303 O1         29.2700   48.6800   66.1000 os       287 PET     -0.411922
   6304 O2         28.8700   50.7200   65.2400 o        287 PET     -0.591068
   6305 O3         36.1800   49.9900   65.1000 o        287 PET     -0.591068
   6306 O4         35.7300   52.2100   65.2000 os       287 PET     -0.411922
   6307 HA2        31.8500   48.0200   66.0300 ha       287 PET      0.129090
   6308 HA3        34.2100   48.6200   65.9300 ha       287 PET      0.145907
   6309 HA4        30.8700   51.9500   64.5300 ha       287 PET      0.145907
   6310 HA5        33.2500   52.5400   64.5400 ha       287 PET      0.129090
   6311 H31        37.5400   52.1700   66.2100 h1       287 PET      0.097188
   6312 H32        37.6100   52.1800   64.3700 h1       287 PET      0.097188
   6313 H41        36.6900   54.5900   66.1800 h1       287 PET      0.097188
   6314 H42        36.4200   54.5200   64.5100 h1       287 PET      0.097188
   6315 C1         38.5600   56.1300   65.2200 c        288 PET      0.825469
   6316 CA1        40.0300   56.6200   65.2800 ca       288 PET     -0.163574
   6317 CA2        40.1900   58.0000   65.0500 ca       288 PET     -0.108363
   6318 CA3        41.4400   58.5100   65.1900 ca       288 PET     -0.078542
   6319 CA4        41.1200   55.7800   65.5300 ca       288 PET     -0.078542
   6320 CA5        42.4000   56.3200   65.6200 ca       288 PET     -0.108363
   6321 CA6        42.5700   57.7200   65.3500 ca       288 PET     -0.163574
   6322 C2         43.8900   58.4200   65.5300 c        288 PET      0.825469
   6323 C3         46.3100   58.1700   65.9700 c3       288 PET      0.058627
   6324 C4         46.8400   58.9100   64.6900 c3       288 PET      0.058627
   6325 O1         38.5000   54.7200   65.1000 os       288 PET     -0.411922
   6326 O2         37.6300   56.8800   65.2800 o        288 PET     -0.591068
   6327 O3         43.9800   59.6600   65.6500 o        288 PET     -0.591068
   6328 O4         44.9600   57.5700   65.6700 os       288 PET     -0.411922
   6329 HA2        39.3300   58.5700   64.7000 ha       288 PET      0.129090
   6330 HA3        41.6200   59.5600   64.9800 ha       288 PET      0.145907
   6331 HA4        40.9200   54.7300   65.7100 ha       288 PET      0.145907
   6332 HA5        43.2300   55.6900   65.9200 ha       288 PET      0.129090
   6333 H31        46.1000   58.9200   66.7500 h1       288 PET      0.097188
   6334 H32        47.0600   57.4800   66.3700 h1       288 PET      0.097188
   6335 H41        46.3300   59.8800   64.6400 h1       288 PET      0.097188
   6336 H42        46.7100   58.2400   63.8300 h1       288 PET      0.097188
   6337 C1         49.2200   58.2300   65.0300 c        289 PET      0.825469
   6338 CA1        50.6800   58.6700   65.3000 ca       289 PET     -0.163574
   6339 CA2        51.0800   60.0100   65.5000 ca       289 PET     -0.108363
   6340 CA3        52.4600   60.3700   65.6500 ca       289 PET     -0.078542
   6341 CA4        51.6900   57.6500   65.3200 ca       289 PET     -0.078542
   6342 CA5        53.0200   58.0200   65.5600 ca       289 PET     -0.108363
   6343 CA6        53.4200   59.3500   65.8000 ca       289 PET     -0.163574
   6344 C2         54.8800   59.7800   65.9800 c        289 PET      0.825469
   6345 C3         57.1600   58.9500   66.1300 c3       289 PET      0.058627
   6346 C4         57.6800   58.5400   64.7600 c3       289 PET      0.058627
   6347 O1         48.3000   59.2100   64.9200 os       289 PET     -0.411922
   6348 O2         48.8900   57.0600   64.8900 o        289 PET     -0.591068
   6349 O3         55.2300   60.9100   65.7900 o        289 PET     -0.591068
   6350 O4         55.7400   58.7100   66.1400 os       289 PET     -0.411922
   6351 HA2        50.2900   60.7600   65.4700 ha       289 PET      0.129090
   6352 HA3        52.7700   61.4000   65.8000 ha       289 PET      0.145907
   6353 HA4        51.3400   56.6300   65.2000 ha       289 PET      0.145907
   6354 HA5        53.8000   57.2700   65.4400 ha       289 PET      0.129090
   6355 H31        57.4300   59.9900   66.3500 h1       289 PET      0.097188
   6356 H32        57.6400   58.4000   66.9500 h1       289 PET      0.097188
   6357 H41        57.7300   59.4100   64.0800 h1       289 PET      0.097188
   6358 H42        56.8600   57.9500   64.3500 h1       289 PET      0.097188
   6359 C1         60.0900   58.4900   65.2000 c        290 PET      0.825469
   6360 CA1        61.3500   57.6900   64.9600 ca       290 PET     -0.163574
   6361 CA2        62.6400   58.0900   65.4600 ca       290 PET     -0.108363
   6362 CA3        63.8400   57.3900   65.2300 ca       290 PET     -0.078542
   6363 CA4        61.3100   56.5200   64.2200 ca       290 PET     -0.078542
   6364 CA5        62.4800   55.7800   63.9600 ca       290 PET     -0.108363
   6365 CA6        63.7400   56.2500   64.4400 ca       290 PET     -0.163574
   6366 C2         64.9700   55.4600   64.1100 c        290 PET      0.825469
   6367 C3         67.3300   55.4200   64.1400 c3       290 PET      0.058627
   6368 C4         67.5900   54.0700   64.8300 c3       290 PET      0.058627
   6369 O1         58.9900   57.8800   64.8100 os       290 PET     -0.411922
   6370 O2         60.1200   59.6200   65.7500 o        290 PET     -0.591068
   6371 O3         64.8800   54.4600   63.4000 o        290 PET     -0.591068
   6372 O4         66.1100   55.9000   64.7000 os       290 PET     -0.411922
   6373 HA2        62.7200   58.9800   66.0700 ha       290 PET      0.129090
   6374 HA3        64.7900   57.8100   65.5400 ha       290 PET      0.145907
   6375 HA4        60.3500   56.1100   63.9100 ha       290 PET      0.145907
   6376 HA5        62.4500   54.8600   63.3800 ha       290 PET      0.129090
   6377 H31        67.2600   55.2700   63.0600 h1       290 PET      0.097188
   6378 H32        68.1500   56.0900   64.4000 h1       290 PET      0.097188
   6379 H41        67.0000   53.2900   64.3500 h1       290 PET      0.097188
   6380 H42        67.3600   54.1900   65.9000 h1       290 PET      0.097188
   6381 C1         69.6500   53.6000   63.6000 c        291 PET      0.825469
   6382 CA1        71.1200   53.2900   63.6700 ca       291 PET     -0.163574
   6383 CA2        71.7400   53.2000   64.9100 ca       291 PET     -0.108363
   6384 CA3        73.1300   53.0100   65.0100 ca       291 PET     -0.078542
   6385 CA4        71.8600   53.1400   62.5000 ca       291 PET     -0.078542
   6386 CA5        73.2700   52.9200   62.5500 ca       291 PET     -0.108363
   6387 CA6        73.9000   52.9300   63.8600 ca       291 PET     -0.163574
   6388 C2         75.4000   52.7000   63.9100 c        291 PET      0.825469
   6389 C3         77.3000   52.4000   65.3900 c3       291 PET      0.058627
   6390 C4         77.8600   53.9000   65.3000 c3       291 PET      0.058627
   6391 O1         69.0200   53.7600   64.7900 os       291 PET     -0.411922
   6392 O2         69.0900   53.6600   62.5200 o        291 PET     -0.591068
   6393 O3         76.1100   52.6800   62.9200 o        291 PET     -0.591068
   6394 O4         75.9100   52.5000   65.1500 os       291 PET     -0.411922
   6395 HA2        71.1000   53.1700   65.7800 ha       291 PET      0.129090
   6396 HA3        73.5700   52.8900   66.0000 ha       291 PET      0.145907
   6397 HA4        71.3900   53.2900   61.5300 ha       291 PET      0.145907
   6398 HA5        73.7400   52.8300   61.5700 ha       291 PET      0.129090
   6399 H31        77.4700   51.9500   66.3700 h1       291 PET      0.097188
   6400 H32        77.7800   51.7800   64.6200 h1       291 PET      0.097188
   6401 H41        77.6600   54.4700   66.2100 h1       291 PET      0.097188
   6402 H42        77.5000   54.3100   64.3500 h1       291 PET      0.097188
   6403 C1          0.1700   54.7300   65.4100 c        292 PET      0.825469
   6404 CA1         1.5800   54.4400   65.2000 ca       292 PET     -0.163574
   6405 CA2         2.5900   55.3300   65.5700 ca       292 PET     -0.108363
   6406 CA3         3.9100   55.0300   65.3400 ca       292 PET     -0.078542
   6407 CA4         1.9600   53.2000   64.7200 ca       292 PET     -0.078542
   6408 CA5         3.2800   52.8700   64.4600 ca       292 PET     -0.108363
   6409 CA6         4.3000   53.8000   64.7600 ca       292 PET     -0.163574
   6410 C2          5.6900   53.4100   64.6200 c        292 PET      0.825469
   6411 C3          7.9900   53.6700   65.4700 c3       292 PET      0.058627
   6412 C4          8.7600   53.6200   64.1600 c3       292 PET      0.058627
   6413 O1         -0.6900   53.7300   65.1800 os       292 PET     -0.411922
   6414 O2         -0.1700   55.8200   65.8300 o        292 PET     -0.591068
   6415 O3          5.9700   52.5100   63.8400 o        292 PET     -0.591068
   6416 O4          6.6300   54.1600   65.3900 os       292 PET     -0.411922
   6417 HA2         2.4100   56.2800   66.0700 ha       292 PET      0.129090
   6418 HA3         4.6600   55.7200   65.7000 ha       292 PET      0.145907
   6419 HA4         1.2300   52.4400   64.4800 ha       292 PET      0.145907
   6420 HA5         3.5000   51.9300   63.9600 ha       292 PET      0.129090
   6421 H31         8.5300   54.3000   66.1800 h1       292 PET      0.097188
   6422 H32         7.9700   52.6500   65.8800 h1       292 PET      0.097188
   6423 H41         8.1200   53.6200   63.2700 h1       292 PET      0.097188
   6424 H42         9.3700   52.7100   64.0900 h1       292 PET      0.097188
   6425 C1          9.0900   55.9800   64.0900 c        293 PET      0.825469
   6426 CA1        10.1100   57.1000   64.3500 ca       293 PET     -0.163574
   6427 CA2        11.4900   56.9200   64.3400 ca       293 PET     -0.108363
   6428 CA3        12.4100   58.0200   64.5600 ca       293 PET     -0.078542
   6429 CA4         9.6700   58.4300   64.5400 ca       293 PET     -0.078542
   6430 CA5        10.5600   59.4900   64.7900 ca       293 PET     -0.108363
   6431 CA6        11.9400   59.3100   64.8800 ca       293 PET     -0.163574
   6432 C2         12.8600   60.4500   65.0600 c        293 PET      0.825469
   6433 C3         15.1100   61.0800   65.5200 c3       293 PET      0.058627
   6434 C4         15.1900   62.3700   64.6700 c3       293 PET      0.058627
   6435 O1          9.6800   54.7500   64.2000 os       293 PET     -0.411922
   6436 O2          7.9300   56.1100   63.8300 o        293 PET     -0.591068
   6437 O3         12.4800   61.5300   65.3900 o        293 PET     -0.591068
   6438 O4         14.1900   60.1600   64.8900 os       293 PET     -0.411922
   6439 HA2        11.9200   55.9500   64.1100 ha       293 PET      0.129090
   6440 HA3        13.4300   57.7300   64.3600 ha       293 PET      0.145907
   6441 HA4         8.5900   58.5700   64.5100 ha       293 PET      0.145907
   6442 HA5        10.2900   60.5200   65.0300 ha       293 PET      0.129090
   6443 H31        14.8500   61.3000   66.5600 h1       293 PET      0.097188
   6444 H32        16.1200   60.6400   65.4200 h1       293 PET      0.097188
   6445 H41        14.7200   63.2400   65.1400 h1       293 PET      0.097188
   6446 H42        14.7100   62.1500   63.7100 h1       293 PET      0.097188
   6447 C1         16.9600   63.9100   63.8100 c        294 PET      0.825469
   6448 CA1        18.4600   63.9600   63.5000 ca       294 PET     -0.163574
   6449 CA2        18.9500   65.0300   62.8200 ca       294 PET     -0.108363
   6450 CA3        20.3300   65.2400   62.6300 ca       294 PET     -0.078542
   6451 CA4        19.2900   63.0200   64.0700 ca       294 PET     -0.078542
   6452 CA5        20.6900   63.1900   63.9700 ca       294 PET     -0.108363
   6453 CA6        21.1900   64.2900   63.2600 ca       294 PET     -0.163574
   6454 C2         22.6300   64.6100   63.3600 c        294 PET      0.825469
   6455 C3         24.1900   66.5000   63.4200 c3       294 PET      0.058627
   6456 C4         24.7000   66.3800   64.8800 c3       294 PET      0.058627
   6457 O1         16.5900   62.6900   64.3900 os       294 PET     -0.411922
   6458 O2         16.1900   64.8000   63.4400 o        294 PET     -0.591068
   6459 O3         23.4400   63.7100   63.4200 o        294 PET     -0.591068
   6460 O4         22.8700   65.9300   63.1700 os       294 PET     -0.411922
   6461 HA2        18.3500   65.8100   62.3600 ha       294 PET      0.129090
   6462 HA3        20.7100   66.1100   62.1100 ha       294 PET      0.145907
   6463 HA4        18.9500   62.2600   64.7600 ha       294 PET      0.145907
   6464 HA5        21.4300   62.5500   64.4500 ha       294 PET      0.129090
   6465 H31        24.8500   65.9300   62.7600 h1       294 PET      0.097188
   6466 H32        24.1600   67.5800   63.2200 h1       294 PET      0.097188
   6467 H41        24.2200   65.4800   65.2700 h1       294 PET      0.097188
   6468 H42        24.3800   67.2600   65.4500 h1       294 PET      0.097188
   6469 C1         26.9100   67.2300   64.3500 c        295 PET      0.825469
   6470 CA1        28.2300   66.8400   63.8800 ca       295 PET     -0.163574
   6471 CA2        28.4900   65.4900   63.6400 ca       295 PET     -0.108363
   6472 CA3        29.6400   65.1200   62.9900 ca       295 PET     -0.078542
   6473 CA4        29.2200   67.8300   63.6500 ca       295 PET     -0.078542
   6474 CA5        30.5000   67.4500   63.0900 ca       295 PET     -0.108363
   6475 CA6        30.6900   66.0800   62.7800 ca       295 PET     -0.163574
   6476 C2         31.9500   65.5300   62.2100 c        295 PET      0.825469
   6477 C3         33.0800   63.5000   61.5400 c3       295 PET      0.058627
   6478 C4         33.1200   62.1900   62.2400 c3       295 PET      0.058627
   6479 O1         26.1000   66.2000   64.8300 os       295 PET     -0.411922
   6480 O2         26.5200   68.4000   64.1700 o        295 PET     -0.591068
   6481 O3         32.7500   66.2000   61.6000 o        295 PET     -0.591068
   6482 O4         32.0100   64.1900   62.1900 os       295 PET     -0.411922
   6483 HA2        27.6800   64.7700   63.6800 ha       295 PET      0.129090
   6484 HA3        29.7900   64.0800   62.7100 ha       295 PET      0.145907
   6485 HA4        29.0800   68.8900   63.8300 ha       295 PET      0.145907
   6486 HA5        31.1800   68.2100   62.7100 ha       295 PET      0.129090
   6487 H31        32.8800   63.3400   60.4700 h1       295 PET      0.097188
   6488 H32        34.0400   63.9800   61.7200 h1       295 PET      0.097188
   6489 H41        32.2500   61.8700   62.8300 h1       295 PET      0.097188
   6490 H42        33.9600   62.3000   62.9500 h1       295 PET      0.097188
   6491 C1         34.7500   60.9600   60.9300 c        296 PET      0.825469
   6492 CA1        35.1000   59.4700   60.4800 ca       296 PET     -0.163574
   6493 CA2        34.0800   58.5500   60.1500 ca       296 PET     -0.108363
   6494 CA3        34.4500   57.2600   59.7500 ca       296 PET     -0.078542
   6495 CA4        36.4400   59.1200   60.5600 ca       296 PET     -0.078542
   6496 CA5        36.8300   57.8700   60.1000 ca       296 PET     -0.108363
   6497 CA6        35.8400   56.9600   59.7200 ca       296 PET     -0.163574
   6498 C2         36.1100   55.5300   59.2700 c        296 PET      0.825469
   6499 C3         37.7800   54.1500   58.2700 c3       296 PET      0.058627
   6500 C4         39.3300   54.1900   58.0800 c3       296 PET      0.058627
   6501 O1         33.4600   61.1300   61.3200 os       296 PET     -0.411922
   6502 O2         35.5700   61.8400   60.9600 o        296 PET     -0.591068
   6503 O3         35.3400   54.5800   59.2900 o        296 PET     -0.591068
   6504 O4         37.3700   55.4100   58.9100 os       296 PET     -0.411922
   6505 HA2        33.0500   58.8800   60.1800 ha       296 PET      0.129090
   6506 HA3        33.6700   56.5400   59.5300 ha       296 PET      0.145907
   6507 HA4        37.1600   59.7900   61.0100 ha       296 PET      0.145907
   6508 HA5        37.8800   57.6100   60.0700 ha       296 PET      0.129090
   6509 H31        37.5000   53.3400   58.9500 h1       296 PET      0.097188
   6510 H32        37.3400   54.0600   57.2700 h1       296 PET      0.097188
   6511 H41        39.4900   54.6800   57.1200 h1       296 PET      0.097188
   6512 H42        39.8200   53.2200   57.9400 h1       296 PET      0.097188
   6513 C1         41.2700   55.0400   59.1100 c        297 PET      0.825469
   6514 CA1        41.8400   56.0400   60.0700 ca       297 PET     -0.163574
   6515 CA2        40.9900   57.0700   60.4800 ca       297 PET     -0.108363
   6516 CA3        41.4500   58.1100   61.2500 ca       297 PET     -0.078542
   6517 CA4        43.2200   56.2600   60.2400 ca       297 PET     -0.078542
   6518 CA5        43.7400   57.3900   60.9100 ca       297 PET     -0.108363
   6519 CA6        42.8400   58.3100   61.4900 ca       297 PET     -0.163574
   6520 C2         43.3400   59.4800   62.2900 c        297 PET      0.825469
   6521 C3         42.7400   61.5900   63.3800 c3       297 PET      0.058627
   6522 C4         43.0300   62.7000   62.4400 c3       297 PET      0.058627
   6523 O1         39.9500   54.9200   59.1300 os       297 PET     -0.411922
   6524 O2         42.0300   54.3400   58.3900 o        297 PET     -0.591068
   6525 O3         44.5600   59.6400   62.5800 o        297 PET     -0.591068
   6526 O4         42.3700   60.3800   62.6500 os       297 PET     -0.411922
   6527 HA2        39.9000   57.1000   60.4000 ha       297 PET      0.129090
   6528 HA3        40.7500   58.8600   61.6100 ha       297 PET      0.145907
   6529 HA4        43.9800   55.6200   59.8100 ha       297 PET      0.145907
   6530 HA5        44.7900   57.5300   61.1100 ha       297 PET      0.129090
   6531 H31        41.9100   61.9900   63.9700 h1       297 PET      0.097188
   6532 H32        43.5500   61.4700   64.1000 h1       297 PET      0.097188
   6533 H41        42.7400   63.6600   62.8900 h1       297 PET      0.097188
   6534 H42        42.5700   62.5600   61.4600 h1       297 PET      0.097188
   6535 C1         45.2000   63.7700   61.9700 c        298 PET      0.825469
   6536 CA1        46.6900   63.6400   62.0300 ca       298 PET     -0.163574
   6537 CA2        47.6300   64.7000   61.6800 ca       298 PET     -0.108363
   6538 CA3        48.9300   64.6000   61.9800 ca       298 PET     -0.078542
   6539 CA4        47.3000   62.4300   62.5000 ca       298 PET     -0.078542
   6540 CA5        48.7300   62.3200   62.6000 ca       298 PET     -0.108363
   6541 CA6        49.5500   63.4100   62.3900 ca       298 PET     -0.163574
   6542 C2         51.0400   63.4000   62.4800 c        298 PET      0.825469
   6543 C3         53.0500   64.4800   61.7500 c3       298 PET      0.058627
   6544 C4         53.5200   65.8000   61.2400 c3       298 PET      0.058627
   6545 O1         44.4800   62.6600   62.3000 os       298 PET     -0.411922
   6546 O2         44.7000   64.8600   61.8000 o        298 PET     -0.591068
   6547 O3         51.6200   62.4700   62.9600 o        298 PET     -0.591068
   6548 O4         51.6500   64.4700   61.8500 os       298 PET     -0.411922
   6549 HA2        47.3300   65.6400   61.2300 ha       298 PET      0.129090
   6550 HA3        49.5800   65.4400   61.7900 ha       298 PET      0.145907
   6551 HA4        46.6300   61.6200   62.7500 ha       298 PET      0.145907
   6552 HA5        49.1200   61.4000   63.0200 ha       298 PET      0.129090
   6553 H31        53.4800   64.2300   62.7300 h1       298 PET      0.097188
   6554 H32        53.2900   63.6100   61.1300 h1       298 PET      0.097188
   6555 H41        53.3900   66.6300   61.9500 h1       298 PET      0.097188
   6556 H42        52.9300   66.1800   60.3900 h1       298 PET      0.097188
   6557 C1         55.6200   66.3200   60.0700 c        299 PET      0.825469
   6558 CA1        57.1200   65.9600   60.0400 ca       299 PET     -0.163574
   6559 CA2        57.5800   64.5600   60.0800 ca       299 PET     -0.108363
   6560 CA3        58.9200   64.2600   60.2800 ca       299 PET     -0.078542
   6561 CA4        58.0700   66.9600   59.9900 ca       299 PET     -0.078542
   6562 CA5        59.4300   66.6100   60.2900 ca       299 PET     -0.108363
   6563 CA6        59.8600   65.3200   60.5000 ca       299 PET     -0.163574
   6564 C2         61.2700   65.0000   60.9500 c        299 PET      0.825469
   6565 C3         63.1600   65.7100   62.4000 c3       299 PET      0.058627
   6566 C4         64.3400   66.3500   61.6300 c3       299 PET      0.058627
   6567 O1         54.8700   65.5000   60.8600 os       299 PET     -0.411922
   6568 O2         55.1200   67.2400   59.4100 o        299 PET     -0.591068
   6569 O3         61.6900   63.9100   60.8600 o        299 PET     -0.591068
   6570 O4         61.8700   65.9600   61.7000 os       299 PET     -0.411922
   6571 HA2        56.8400   63.7700   60.1000 ha       299 PET      0.129090
   6572 HA3        59.2500   63.2300   60.3900 ha       299 PET      0.145907
   6573 HA4        57.7700   68.0000   59.9500 ha       299 PET      0.145907
   6574 HA5        60.1800   67.3900   60.4100 ha       299 PET      0.129090
   6575 H31        63.1000   66.1600   63.4000 h1       299 PET      0.097188
   6576 H32        63.3000   64.6400   62.5900 h1       299 PET      0.097188
   6577 H41        64.7800   65.7000   60.8700 h1       299 PET      0.097188
   6578 H42        65.0900   66.6200   62.3800 h1       299 PET      0.097188
   6579 C1         64.7000   68.4000   60.4700 c        300 PET      0.825469
   6580 CA1        64.1200   69.4500   59.6200 ca       300 PET     -0.163574
   6581 CA2        62.7300   69.6900   59.5300 ca       300 PET     -0.108363
   6582 CA3        62.2700   70.7700   58.8100 ca       300 PET     -0.078542
   6583 CA4        65.0400   70.2900   58.9100 ca       300 PET     -0.078542
   6584 CA5        64.5500   71.3400   58.1500 ca       300 PET     -0.108363
   6585 CA6        63.1600   71.5300   58.0500 ca       300 PET     -0.163574
   6586 C2         62.5500   72.6300   57.1300 c        300 PET      0.825469
   6587 C3         60.4100   73.4600   56.1300 c3       300 PET      0.058627
   6588 C4         60.5800   74.8900   56.5400 c3       300 PET      0.058627
   6589 O1         63.8200   67.5200   60.9800 os       300 PET     -0.411922
   6590 O2         65.9000   68.4000   60.6100 o        300 PET     -0.591068
   6591 O3         63.2200   73.4300   56.4800 o        300 PET     -0.591068
   6592 O4         61.1500   72.5800   57.0700 os       300 PET     -0.411922
   6593 HA2        61.9900   69.0100   59.9500 ha       300 PET      0.129090
   6594 HA3        61.2100   70.9900   58.7800 ha       300 PET      0.145907
   6595 HA4        66.0900   70.0500   58.7600 ha       300 PET      0.145907
   6596 HA5        65.2300   71.9800   57.6000 ha       300 PET      0.129090
   6597 H31        60.8500   73.3800   55.1300 h1       300 PET      0.097188
   6598 H32        59.3500   73.1900   56.1600 h1       300 PET      0.097188
   6599 H41        61.5900   75.2500   56.3400 h1       300 PET      0.097188
   6600 H42        59.7400   75.4900   56.1800 h1       300 PET      0.097188
   6601 C1         46.8200   73.8800   67.7800 c        301 PET      0.825469
   6602 CA1        45.3400   74.2400   67.6400 ca       301 PET     -0.163574
   6603 CA2        44.5100   74.0900   68.7200 ca       301 PET     -0.108363
   6604 CA3        43.1900   74.5600   68.6200 ca       301 PET     -0.078542
   6605 CA4        44.9400   74.9400   66.5000 ca       301 PET     -0.078542
   6606 CA5        43.5900   75.4500   66.4400 ca       301 PET     -0.108363
   6607 CA6        42.7100   75.2000   67.4800 ca       301 PET     -0.163574
   6608 C2         41.3600   75.7500   67.4000 c        301 PET      0.825469
   6609 C3         39.5300   76.5000   68.8100 c3       301 PET      0.058627
   6610 C4         39.7500   78.0500   68.8900 c3       301 PET      0.058627
   6611 O1         47.0900   72.6600   68.3100 os       301 PET     -0.411922
   6612 O2         47.6600   74.6100   67.3400 o        301 PET     -0.591068
   6613 O3         40.9200   76.3100   66.4000 o        301 PET     -0.591068
   6614 O4         40.7400   75.7100   68.6200 os       301 PET     -0.411922
   6615 HA2        44.8400   73.5700   69.6200 ha       301 PET      0.129090
   6616 HA3        42.5100   74.4600   69.4600 ha       301 PET      0.145907
   6617 HA4        45.5000   75.0100   65.5700 ha       301 PET      0.145907
   6618 HA5        43.1100   75.8900   65.5700 ha       301 PET      0.129090
   6619 H31        38.8800   76.3000   67.9500 h1       301 PET      0.097188
   6620 H32        38.9900   76.1800   69.7100 h1       301 PET      0.097188
   6621 H41        39.1100   78.5500   69.6200 h1       301 PET      0.097188
   6622 H42        39.4700   78.3900   67.8800 h1       301 PET      0.097188
   6623 C1         41.6500   79.4000   68.6100 c        302 PET      0.825469
   6624 CA1        43.1100   79.3000   68.4000 ca       302 PET     -0.163574
   6625 CA2        43.8400   80.3300   67.7400 ca       302 PET     -0.108363
   6626 CA3        45.2000   80.3600   67.6700 ca       302 PET     -0.078542
   6627 CA4        43.8700   78.2100   68.8800 ca       302 PET     -0.078542
   6628 CA5        45.2500   78.1600   68.6300 ca       302 PET     -0.108363
   6629 CA6        45.9200   79.2600   68.0700 ca       302 PET     -0.163574
   6630 C2         47.4000   79.2300   67.8200 c        302 PET      0.825469
   6631 C3         49.1200   77.6100   67.6000 c3       302 PET      0.058627
   6632 C4         49.8000   77.6600   69.0400 c3       302 PET      0.058627
   6633 O1         41.1100   78.2500   69.0400 os       302 PET     -0.411922
   6634 O2         41.0000   80.3900   68.4100 o        302 PET     -0.591068
   6635 O3         48.1500   80.2200   67.7900 o        302 PET     -0.591068
   6636 O4         47.7500   77.9300   67.6100 os       302 PET     -0.411922
   6637 HA2        43.3600   81.2400   67.3800 ha       302 PET      0.129090
   6638 HA3        45.6600   81.1500   67.0900 ha       302 PET      0.145907
   6639 HA4        43.3400   77.4600   69.4600 ha       302 PET      0.145907
   6640 HA5        45.8300   77.2800   68.8800 ha       302 PET      0.129090
   6641 H31        49.1900   76.6100   67.1500 h1       302 PET      0.097188
   6642 H32        49.5800   78.3400   66.9200 h1       302 PET      0.097188
   6643 H41        48.9800   77.7500   69.7600 h1       302 PET      0.097188
   6644 H42        50.5400   78.4600   69.0600 h1       302 PET      0.097188
   6645 C1         51.5900   76.1200   68.5500 c        303 PET      0.825469
   6646 CA1        52.1400   74.7400   68.7800 ca       303 PET     -0.163574
   6647 CA2        53.5000   74.6000   68.7600 ca       303 PET     -0.108363
   6648 CA3        54.1300   73.3200   68.8300 ca       303 PET     -0.078542
   6649 CA4        51.3400   73.5900   68.7800 ca       303 PET     -0.078542
   6650 CA5        51.9800   72.3100   68.7900 ca       303 PET     -0.108363
   6651 CA6        53.3900   72.1300   68.8000 ca       303 PET     -0.163574
   6652 C2         54.1100   70.7800   68.8000 c        303 PET      0.825469
   6653 C3         56.2200   69.5200   68.7000 c3       303 PET      0.058627
   6654 C4         57.6400   69.9000   68.4600 c3       303 PET      0.058627
   6655 O1         50.4200   76.4000   69.2800 os       303 PET     -0.411922
   6656 O2         52.1200   77.0200   67.8100 o        303 PET     -0.591068
   6657 O3         53.5000   69.8100   69.2000 o        303 PET     -0.591068
   6658 O4         55.4600   70.7500   68.5800 os       303 PET     -0.411922
   6659 HA2        54.2300   75.3900   68.8900 ha       303 PET      0.129090
   6660 HA3        55.2100   73.3200   68.8400 ha       303 PET      0.145907
   6661 HA4        50.2600   73.6400   68.9200 ha       303 PET      0.145907
   6662 HA5        51.4300   71.3700   68.8000 ha       303 PET      0.129090
   6663 H31        56.0500   69.0800   69.6900 h1       303 PET      0.097188
   6664 H32        55.9200   68.8600   67.8800 h1       303 PET      0.097188
   6665 H41        57.9000   70.8500   68.9500 h1       303 PET      0.097188
   6666 H42        57.6400   70.1200   67.3900 h1       303 PET      0.097188
   6667 C1         59.8700   69.2700   68.8300 c        304 PET      0.825469
   6668 CA1        60.9100   68.2300   68.6800 ca       304 PET     -0.163574
   6669 CA2        62.2100   68.6300   68.9700 ca       304 PET     -0.108363
   6670 CA3        63.3200   67.7000   68.8100 ca       304 PET     -0.078542
   6671 CA4        60.6200   66.8700   68.5500 ca       304 PET     -0.078542
   6672 CA5        61.7400   65.9900   68.3500 ca       304 PET     -0.108363
   6673 CA6        63.0800   66.3800   68.4200 ca       304 PET     -0.163574
   6674 C2         64.2900   65.4500   68.0900 c        304 PET      0.825469
   6675 C3         66.7200   65.4000   67.5300 c3       304 PET      0.058627
   6676 C4         67.2300   65.0000   68.8800 c3       304 PET      0.058627
   6677 O1         58.5900   68.8200   68.6200 os       304 PET     -0.411922
   6678 O2         60.2400   70.4400   69.0500 o        304 PET     -0.591068
   6679 O3         64.2400   64.2200   68.2700 o        304 PET     -0.591068
   6680 O4         65.4900   66.1100   67.7000 os       304 PET     -0.411922
   6681 HA2        62.4200   69.6800   69.1800 ha       304 PET      0.129090
   6682 HA3        64.3400   68.0500   68.9000 ha       304 PET      0.145907
   6683 HA4        59.6000   66.5000   68.5600 ha       304 PET      0.145907
   6684 HA5        61.3800   64.9800   68.1300 ha       304 PET      0.129090
   6685 H31        66.5300   64.5500   66.8700 h1       304 PET      0.097188
   6686 H32        67.3700   66.1500   67.0500 h1       304 PET      0.097188
   6687 H41        66.4500   64.3900   69.3600 h1       304 PET      0.097188
   6688 H42        67.3700   65.9200   69.4500 h1       304 PET      0.097188
   6689 C1         68.5500   63.0500   68.4200 c        305 PET      0.825469
   6690 CA1        70.0500   62.6100   68.2400 ca       305 PET     -0.163574
   6691 CA2        71.1700   63.4100   68.7500 ca       305 PET     -0.108363
   6692 CA3        72.4700   62.8700   68.6300 ca       305 PET     -0.078542
   6693 CA4        70.3200   61.4800   67.4300 ca       305 PET     -0.078542
   6694 CA5        71.6800   61.0100   67.3200 ca       305 PET     -0.108363
   6695 CA6        72.7400   61.7500   67.8500 ca       305 PET     -0.163574
   6696 C2         74.1400   61.2500   67.5700 c        305 PET      0.825469
   6697 C3         76.4000   61.2300   68.5400 c3       305 PET      0.058627
   6698 C4         76.6300   59.6900   68.6100 c3       305 PET      0.058627
   6699 O1         68.4900   64.3500   68.8500 os       305 PET     -0.411922
   6700 O2         67.5700   62.3300   68.2200 o        305 PET     -0.591068
   6701 O3         74.5100   60.6300   66.6100 o        305 PET     -0.591068
   6702 O4         74.9900   61.5500   68.5900 os       305 PET     -0.411922
   6703 HA2        71.0900   64.2400   69.4400 ha       305 PET      0.129090
   6704 HA3        73.3000   63.3800   69.1100 ha       305 PET      0.145907
   6705 HA4        69.5000   60.9300   66.9800 ha       305 PET      0.145907
   6706 HA5        71.9200   60.1600   66.6900 ha       305 PET      0.129090
   6707 H31        76.8100   61.6100   67.5900 h1       305 PET      0.097188
   6708 H32        76.8900   61.7200   69.3900 h1       305 PET      0.097188
   6709 H41        76.2300   59.1900   67.7200 h1       305 PET      0.097188
   6710 H42        76.0100   59.3100   69.4300 h1       305 PET      0.097188
   6711 C1         -1.4800   58.3200   68.8300 c        306 PET      0.825469
   6712 CA1        -0.0200   58.3000   68.8800 ca       306 PET     -0.163574
   6713 CA2         0.6300   57.0400   69.0400 ca       306 PET     -0.108363
   6714 CA3         2.0400   56.9900   69.0600 ca       306 PET     -0.078542
   6715 CA4         0.7600   59.5100   68.7500 ca       306 PET     -0.078542
   6716 CA5         2.1400   59.4200   68.6700 ca       306 PET     -0.108363
   6717 CA6         2.7700   58.1500   68.8500 ca       306 PET     -0.163574
   6718 C2          4.2500   58.1300   68.8800 c        306 PET      0.825469
   6719 C3          6.2400   56.7900   68.7700 c3       306 PET      0.058627
   6720 C4          6.7700   55.3100   68.7300 c3       306 PET      0.058627
   6721 O1         -1.9900   59.6100   68.7600 os       306 PET     -0.411922
   6722 O2         -2.1500   57.3000   68.9200 o        306 PET     -0.591068
   6723 O3          4.9600   59.0800   68.8000 o        306 PET     -0.591068
   6724 O4          4.8100   56.8700   68.9000 os       306 PET     -0.411922
   6725 HA2         0.1200   56.1100   69.2800 ha       306 PET      0.129090
   6726 HA3         2.5900   56.0700   69.2100 ha       306 PET      0.145907
   6727 HA4         0.3000   60.4700   68.5300 ha       306 PET      0.145907
   6728 HA5         2.7500   60.2900   68.4400 ha       306 PET      0.129090
   6729 H31         6.6100   57.3000   67.8800 h1       306 PET      0.097188
   6730 H32         6.6300   57.3700   69.6100 h1       306 PET      0.097188
   6731 H41         6.5000   54.9200   67.7400 h1       306 PET      0.097188
   6732 H42         6.3200   54.6100   69.4300 h1       306 PET      0.097188
   6733 C1          9.1600   55.8200   68.0600 c        307 PET      0.825469
   6734 CA1        10.5600   55.2100   68.1700 ca       307 PET     -0.163574
   6735 CA2        11.5100   55.9900   67.6000 ca       307 PET     -0.108363
   6736 CA3        12.8800   55.7700   67.7800 ca       307 PET     -0.078542
   6737 CA4        10.9100   53.9500   68.6200 ca       307 PET     -0.078542
   6738 CA5        12.2800   53.6500   68.9200 ca       307 PET     -0.108363
   6739 CA6        13.2500   54.5500   68.4700 ca       307 PET     -0.163574
   6740 C2         14.7100   54.2200   68.6400 c        307 PET      0.825469
   6741 C3         16.9500   55.0600   68.4900 c3       307 PET      0.058627
   6742 C4         17.6500   56.3900   68.5000 c3       307 PET      0.058627
   6743 O1          8.2400   55.2900   68.9500 os       307 PET     -0.411922
   6744 O2          8.9000   56.6300   67.2200 o        307 PET     -0.591068
   6745 O3         15.1700   53.0900   68.9000 o        307 PET     -0.591068
   6746 O4         15.5700   55.3500   68.6000 os       307 PET     -0.411922
   6747 HA2        11.3100   56.8900   67.0200 ha       307 PET      0.129090
   6748 HA3        13.6300   56.4900   67.4700 ha       307 PET      0.145907
   6749 HA4        10.1300   53.2300   68.8300 ha       307 PET      0.145907
   6750 HA5        12.5600   52.7300   69.4200 ha       307 PET      0.129090
   6751 H31        17.3100   54.4000   69.2900 h1       307 PET      0.097188
   6752 H32        17.1100   54.4900   67.5700 h1       307 PET      0.097188
   6753 H41        17.5300   57.0600   69.3600 h1       307 PET      0.097188
   6754 H42        17.2000   57.0200   67.7300 h1       307 PET      0.097188
   6755 C1         20.0500   57.0800   68.3600 c        308 PET      0.825469
   6756 CA1        21.4600   56.5300   68.2000 ca       308 PET     -0.163574
   6757 CA2        22.5200   57.3800   67.7800 ca       308 PET     -0.108363
   6758 CA3        23.9200   56.8700   67.7800 ca       308 PET     -0.078542
   6759 CA4        21.7700   55.1900   68.5800 ca       308 PET     -0.078542
   6760 CA5        23.0900   54.7900   68.5500 ca       308 PET     -0.108363
   6761 CA6        24.2100   55.5700   68.1300 ca       308 PET     -0.163574
   6762 C2         25.6600   55.1300   68.0400 c        308 PET      0.825469
   6763 C3         27.1900   53.3500   68.7500 c3       308 PET      0.058627
   6764 C4         27.9900   52.8500   67.5500 c3       308 PET      0.058627
   6765 O1         19.1200   56.1400   68.3000 os       308 PET     -0.411922
   6766 O2         19.7800   58.1900   68.7800 o        308 PET     -0.591068
   6767 O3         26.6600   55.8200   67.7900 o        308 PET     -0.591068
   6768 O4         25.8200   53.8100   68.3300 os       308 PET     -0.411922
   6769 HA2        22.2600   58.3700   67.4100 ha       308 PET      0.129090
   6770 HA3        24.7100   57.5200   67.4300 ha       308 PET      0.145907
   6771 HA4        21.0400   54.5100   69.0000 ha       308 PET      0.145907
   6772 HA5        23.3200   53.7800   68.9100 ha       308 PET      0.129090
   6773 H31        27.7700   54.0700   69.3300 h1       308 PET      0.097188
   6774 H32        27.0100   52.5200   69.4500 h1       308 PET      0.097188
   6775 H41        28.0900   53.7100   66.8700 h1       308 PET      0.097188
   6776 H42        27.3700   52.1000   67.0500 h1       308 PET      0.097188
   6777 C1         30.4000   52.8700   67.9400 c        309 PET      0.825469
   6778 CA1        31.5600   51.9100   68.2000 ca       309 PET     -0.163574
   6779 CA2        32.8600   52.4200   68.1700 ca       309 PET     -0.108363
   6780 CA3        33.9300   51.5600   68.4400 ca       309 PET     -0.078542
   6781 CA4        31.3400   50.5200   68.4900 ca       309 PET     -0.078542
   6782 CA5        32.4100   49.6400   68.6600 ca       309 PET     -0.108363
   6783 CA6        33.7300   50.1500   68.7100 ca       309 PET     -0.163574
   6784 C2         34.9200   49.1800   68.8000 c        309 PET      0.825469
   6785 C3         37.3400   48.9800   68.4500 c3       309 PET      0.058627
   6786 C4         38.3800   49.8400   67.7300 c3       309 PET      0.058627
   6787 O1         29.2100   52.2200   67.8800 os       309 PET     -0.411922
   6788 O2         30.5400   54.0400   67.7300 o        309 PET     -0.591068
   6789 O3         34.8700   48.0600   69.2700 o        309 PET     -0.591068
   6790 O4         36.1100   49.7500   68.3300 os       309 PET     -0.411922
   6791 HA2        33.1800   53.4500   68.0000 ha       309 PET      0.129090
   6792 HA3        34.8900   52.0500   68.4500 ha       309 PET      0.145907
   6793 HA4        30.3300   50.1300   68.5000 ha       309 PET      0.145907
   6794 HA5        32.2200   48.5700   68.7300 ha       309 PET      0.129090
   6795 H31        37.6000   48.8800   69.5100 h1       309 PET      0.097188
   6796 H32        37.0800   47.9800   68.0700 h1       309 PET      0.097188
   6797 H41        38.3900   50.8200   68.2100 h1       309 PET      0.097188
   6798 H42        38.0900   49.8800   66.6700 h1       309 PET      0.097188
   6799 C1         40.0400   48.0800   67.2600 c        310 PET      0.825469
   6800 CA1        41.4100   47.5500   67.4800 ca       310 PET     -0.163574
   6801 CA2        42.3000   48.0400   68.5000 ca       310 PET     -0.108363
   6802 CA3        43.5500   47.5700   68.6000 ca       310 PET     -0.078542
   6803 CA4        41.8700   46.5700   66.6900 ca       310 PET     -0.078542
   6804 CA5        43.1300   46.0400   66.7700 ca       310 PET     -0.108363
   6805 CA6        44.0400   46.5600   67.6700 ca       310 PET     -0.163574
   6806 C2         45.3400   45.9800   67.8000 c        310 PET      0.825469
   6807 C3         46.8400   44.2700   67.0600 c3       310 PET      0.058627
   6808 C4         46.7700   43.2600   65.8900 c3       310 PET      0.058627
   6809 O1         39.7800   49.3100   67.8500 os       310 PET     -0.411922
   6810 O2         39.2000   47.4100   66.6400 o        310 PET     -0.591068
   6811 O3         46.1200   46.3400   68.6700 o        310 PET     -0.591068
   6812 O4         45.6200   44.9600   66.9200 os       310 PET     -0.411922
   6813 HA2        41.9200   48.7700   69.2100 ha       310 PET      0.129090
   6814 HA3        44.2800   48.1200   69.2000 ha       310 PET      0.145907
   6815 HA4        41.3300   46.1800   65.8300 ha       310 PET      0.145907
   6816 HA5        43.3300   45.2300   66.0800 ha       310 PET      0.129090
   6817 H31        47.7400   44.8900   66.9600 h1       310 PET      0.097188
   6818 H32        46.9300   43.7900   68.0400 h1       310 PET      0.097188
   6819 H41        46.3600   43.7700   65.0100 h1       310 PET      0.097188
   6820 H42        46.0900   42.4100   66.0600 h1       310 PET      0.097188
   6821 C1         48.4200   41.7300   65.0900 c        311 PET      0.825469
   6822 CA1        49.8900   41.4300   65.1200 ca       311 PET     -0.163574
   6823 CA2        50.7500   42.1200   65.9400 ca       311 PET     -0.108363
   6824 CA3        52.1200   41.6900   66.0700 ca       311 PET     -0.078542
   6825 CA4        50.3500   40.2700   64.4700 ca       311 PET     -0.078542
   6826 CA5        51.6900   39.8800   64.5800 ca       311 PET     -0.108363
   6827 CA6        52.5900   40.5600   65.3700 ca       311 PET     -0.163574
   6828 C2         54.0200   40.1100   65.5100 c        311 PET      0.825469
   6829 C3         55.8400   38.7200   64.7500 c3       311 PET      0.058627
   6830 C4         56.6500   39.6400   63.7800 c3       311 PET      0.058627
   6831 O1         48.0700   42.8000   65.9000 os       311 PET     -0.411922
   6832 O2         47.6400   41.0800   64.4700 o        311 PET     -0.591068
   6833 O3         54.8200   40.6600   66.2400 o        311 PET     -0.591068
   6834 O4         54.4300   39.1200   64.6600 os       311 PET     -0.411922
   6835 HA2        50.4500   42.9600   66.5500 ha       311 PET      0.129090
   6836 HA3        52.7800   42.2100   66.7600 ha       311 PET      0.145907
   6837 HA4        49.6500   39.6300   63.9500 ha       311 PET      0.145907
   6838 HA5        51.9800   38.9200   64.1500 ha       311 PET      0.129090
   6839 H31        56.3000   38.6700   65.7400 h1       311 PET      0.097188
   6840 H32        56.0100   37.7000   64.3700 h1       311 PET      0.097188
   6841 H41        56.4200   40.6700   64.0600 h1       311 PET      0.097188
   6842 H42        56.3700   39.5300   62.7300 h1       311 PET      0.097188
   6843 C1         58.9900   40.3200   63.3600 c        312 PET      0.825469
   6844 CA1        60.4600   39.9500   63.7500 ca       312 PET     -0.163574
   6845 CA2        60.6900   39.2200   64.9500 ca       312 PET     -0.108363
   6846 CA3        62.0000   38.9000   65.2600 ca       312 PET     -0.078542
   6847 CA4        61.5300   40.3400   62.9300 ca       312 PET     -0.078542
   6848 CA5        62.8600   39.9800   63.2600 ca       312 PET     -0.108363
   6849 CA6        63.1300   39.2500   64.4700 ca       312 PET     -0.163574
   6850 C2         64.5200   38.8000   64.8300 c        312 PET      0.825469
   6851 C3         66.9200   38.7600   64.3600 c3       312 PET      0.058627
   6852 C4         67.2200   39.9900   65.2600 c3       312 PET      0.058627
   6853 O1         58.0500   39.4600   63.9500 os       312 PET     -0.411922
   6854 O2         58.7500   41.3200   62.7100 o        312 PET     -0.591068
   6855 O3         64.7900   38.3200   65.9100 o        312 PET     -0.591068
   6856 O4         65.5300   38.8900   63.9400 os       312 PET     -0.411922
   6857 HA2        59.8800   38.9800   65.6400 ha       312 PET      0.129090
   6858 HA3        62.1500   38.3700   66.2000 ha       312 PET      0.145907
   6859 HA4        61.3500   40.8800   62.0100 ha       312 PET      0.145907
   6860 HA5        63.7500   40.1300   62.6600 ha       312 PET      0.129090
   6861 H31        67.0900   37.8400   64.9400 h1       312 PET      0.097188
   6862 H32        67.6100   38.7400   63.5100 h1       312 PET      0.097188
   6863 H41        66.9000   39.8200   66.3000 h1       312 PET      0.097188
   6864 H42        66.7700   40.9100   64.8800 h1       312 PET      0.097188
   6865 C1         69.5100   39.2400   65.9500 c        313 PET      0.825469
   6866 CA1        71.0000   39.5200   65.8500 ca       313 PET     -0.163574
   6867 CA2        71.5000   40.7500   65.4200 ca       313 PET     -0.108363
   6868 CA3        72.8500   41.0200   65.3800 ca       313 PET     -0.078542
   6869 CA4        71.9000   38.5700   66.2300 ca       313 PET     -0.078542
   6870 CA5        73.3100   38.8300   66.3000 ca       313 PET     -0.108363
   6871 CA6        73.7500   40.1000   65.8500 ca       313 PET     -0.163574
   6872 C2         75.1700   40.4600   65.9000 c        313 PET      0.825469
   6873 C3         77.4300   39.4200   65.6000 c3       313 PET      0.058627
   6874 C4         77.6500   39.8600   64.1300 c3       313 PET      0.058627
   6875 O1         68.6800   40.1400   65.3200 os       313 PET     -0.411922
   6876 O2         69.0700   38.3900   66.6600 o        313 PET     -0.591068
   6877 O3         75.5900   41.5900   66.0300 o        313 PET     -0.591068
   6878 O4         75.9800   39.3900   65.8500 os       313 PET     -0.411922
   6879 HA2        70.7700   41.4400   65.0000 ha       313 PET      0.129090
   6880 HA3        73.2000   42.0000   65.0400 ha       313 PET      0.145907
   6881 HA4        71.4800   37.5700   66.3500 ha       313 PET      0.145907
   6882 HA5        74.0100   38.0400   66.5500 ha       313 PET      0.129090
   6883 H31        77.9100   40.0900   66.3200 h1       313 PET      0.097188
   6884 H32        77.8500   38.4500   65.9100 h1       313 PET      0.097188
   6885 H41        77.0800   40.7700   63.9300 h1       313 PET      0.097188
   6886 H42        77.3600   39.0500   63.4400 h1       313 PET      0.097188
   6887 C1         -0.4100   40.1100   62.5900 c        314 PET      0.825469
   6888 CA1         1.0900   39.9900   62.6000 ca       314 PET     -0.163574
   6889 CA2         1.8600   40.8800   61.8200 ca       314 PET     -0.108363
   6890 CA3         3.2400   40.9900   62.0400 ca       314 PET     -0.078542
   6891 CA4         1.7500   39.2300   63.5300 ca       314 PET     -0.078542
   6892 CA5         3.1000   39.2700   63.6800 ca       314 PET     -0.108363
   6893 CA6         3.8400   40.2000   62.9900 ca       314 PET     -0.163574
   6894 C2          5.2500   40.4000   63.2800 c        314 PET      0.825469
   6895 C3          7.1100   41.9200   62.9900 c3       314 PET      0.058627
   6896 C4          7.7100   42.6100   61.7000 c3       314 PET      0.058627
   6897 O1         -0.9600   40.0900   63.9100 os       314 PET     -0.411922
   6898 O2         -1.0700   40.2700   61.6000 o        314 PET     -0.591068
   6899 O3          5.9300   39.7300   64.0100 o        314 PET     -0.591068
   6900 O4          5.8100   41.4700   62.6000 os       314 PET     -0.411922
   6901 HA2         1.4100   41.4000   60.9700 ha       314 PET      0.129090
   6902 HA3         3.9100   41.6300   61.4700 ha       314 PET      0.145907
   6903 HA4         1.1900   38.5100   64.1200 ha       314 PET      0.145907
   6904 HA5         3.6400   38.7500   64.4700 ha       314 PET      0.129090
   6905 H31         7.0400   42.6000   63.8400 h1       314 PET      0.097188
   6906 H32         7.7800   41.0800   63.1700 h1       314 PET      0.097188
   6907 H41         6.9700   43.3900   61.4800 h1       314 PET      0.097188
   6908 H42         7.7500   41.9100   60.8700 h1       314 PET      0.097188
   6909 C1          9.4100   44.2900   61.4900 c        315 PET      0.825469
   6910 CA1        10.8300   44.5900   61.8900 ca       315 PET     -0.163574
   6911 CA2        11.7100   43.5400   62.4300 ca       315 PET     -0.108363
   6912 CA3        12.8900   43.9300   63.0900 ca       315 PET     -0.078542
   6913 CA4        11.1800   45.9500   62.0200 ca       315 PET     -0.078542
   6914 CA5        12.4000   46.2500   62.6200 ca       315 PET     -0.108363
   6915 CA6        13.2800   45.2700   63.1700 ca       315 PET     -0.163574
   6916 C2         14.5400   45.7900   63.8700 c        315 PET      0.825469
   6917 C3         16.4400   45.0700   65.0800 c3       315 PET      0.058627
   6918 C4         17.2300   43.7400   65.2200 c3       315 PET      0.058627
   6919 O1          9.0200   43.1400   62.0700 os       315 PET     -0.411922
   6920 O2          8.7200   45.0000   60.7800 o        315 PET     -0.591068
   6921 O3         14.6900   46.9300   64.1300 o        315 PET     -0.591068
   6922 O4         15.4900   44.8900   64.0400 os       315 PET     -0.411922
   6923 HA2        11.4100   42.5000   62.3500 ha       315 PET      0.129090
   6924 HA3        13.5700   43.1700   63.4600 ha       315 PET      0.145907
   6925 HA4        10.5100   46.7100   61.6100 ha       315 PET      0.145907
   6926 HA5        12.7300   47.2900   62.6300 ha       315 PET      0.129090
   6927 H31        17.1700   45.8200   64.7600 h1       315 PET      0.097188
   6928 H32        15.9100   45.4400   65.9600 h1       315 PET      0.097188
   6929 H41        16.6400   43.0300   64.6300 h1       315 PET      0.097188
   6930 H42        17.4000   43.2500   66.1800 h1       315 PET      0.097188
   6931 C1         19.3900   42.8800   64.3000 c        316 PET      0.825469
   6932 CA1        20.7300   43.4000   63.9800 ca       316 PET     -0.163574
   6933 CA2        21.8400   42.5500   63.8800 ca       316 PET     -0.108363
   6934 CA3        23.1700   43.0100   63.5500 ca       316 PET     -0.078542
   6935 CA4        20.9200   44.6900   63.5300 ca       316 PET     -0.078542
   6936 CA5        22.1500   45.1700   63.2000 ca       316 PET     -0.108363
   6937 CA6        23.3200   44.3700   63.2000 ca       316 PET     -0.163574
   6938 C2         24.6200   45.0300   62.9300 c        316 PET      0.825469
   6939 C3         27.0500   44.5500   62.9700 c3       316 PET      0.058627
   6940 C4         27.2700   45.0800   64.4400 c3       316 PET      0.058627
   6941 O1         18.5100   43.8900   64.5700 os       316 PET     -0.411922
   6942 O2         19.0700   41.7200   64.3800 o        316 PET     -0.591068
   6943 O3         24.8300   46.1800   63.1000 o        316 PET     -0.591068
   6944 O4         25.6500   44.1700   62.7500 os       316 PET     -0.411922
   6945 HA2        21.6600   41.5400   64.2300 ha       316 PET      0.129090
   6946 HA3        24.0000   42.3100   63.6000 ha       316 PET      0.145907
   6947 HA4        20.0100   45.2900   63.4700 ha       316 PET      0.145907
   6948 HA5        22.2000   46.2200   62.9300 ha       316 PET      0.129090
   6949 H31        27.7500   43.7200   62.8200 h1       316 PET      0.097188
   6950 H32        27.3200   45.4200   62.3600 h1       316 PET      0.097188
   6951 H41        26.8000   44.3900   65.1600 h1       316 PET      0.097188
   6952 H42        26.8800   46.0900   64.5800 h1       316 PET      0.097188
   6953 C1         29.5300   44.0800   64.7700 c        317 PET      0.825469
   6954 CA1        30.9600   44.2800   64.6800 ca       317 PET     -0.163574
   6955 CA2        31.8400   43.2500   64.9000 ca       317 PET     -0.108363
   6956 CA3        33.2200   43.4800   65.0000 ca       317 PET     -0.078542
   6957 CA4        31.4400   45.6000   64.5300 ca       317 PET     -0.078542
   6958 CA5        32.8200   45.8100   64.6200 ca       317 PET     -0.108363
   6959 CA6        33.7200   44.7800   64.8100 ca       317 PET     -0.163574
   6960 C2         35.2100   45.0400   64.8400 c        317 PET      0.825469
   6961 C3         36.9300   46.7300   64.9000 c3       317 PET      0.058627
   6962 C4         37.3300   46.7700   63.3800 c3       317 PET      0.058627
   6963 O1         28.6800   45.2000   64.7400 os       317 PET     -0.411922
   6964 O2         29.1300   42.9200   64.9700 o        317 PET     -0.591068
   6965 O3         36.0100   44.1500   64.6400 o        317 PET     -0.591068
   6966 O4         35.5700   46.3300   65.0200 os       317 PET     -0.411922
   6967 HA2        31.4400   42.2500   65.0100 ha       317 PET      0.129090
   6968 HA3        33.9300   42.7200   65.3100 ha       317 PET      0.145907
   6969 HA4        30.8500   46.5000   64.4400 ha       317 PET      0.145907
   6970 HA5        33.2300   46.7600   64.3100 ha       317 PET      0.129090
   6971 H31        37.1800   47.7400   65.2400 h1       317 PET      0.097188
   6972 H32        37.6400   45.9900   65.2900 h1       317 PET      0.097188
   6973 H41        36.8100   47.5600   62.8200 h1       317 PET      0.097188
   6974 H42        36.9800   45.8400   62.9100 h1       317 PET      0.097188
   6975 C1         39.3900   47.9800   63.5200 c        318 PET      0.825469
   6976 CA1        40.8900   47.8600   63.7400 ca       318 PET     -0.163574
   6977 CA2        41.6400   48.9600   64.2100 ca       318 PET     -0.108363
   6978 CA3        42.9800   48.8500   64.3800 ca       318 PET     -0.078542
   6979 CA4        41.5900   46.6900   63.3500 ca       318 PET     -0.078542
   6980 CA5        42.9400   46.6500   63.5100 ca       318 PET     -0.108363
   6981 CA6        43.7000   47.6700   64.0700 ca       318 PET     -0.163574
   6982 C2         45.1500   47.6900   64.1600 c        318 PET      0.825469
   6983 C3         47.1600   46.6300   63.0800 c3       318 PET      0.058627
   6984 C4         47.4700   46.1300   61.6100 c3       318 PET      0.058627
   6985 O1         38.8000   46.7700   63.2800 os       318 PET     -0.411922
   6986 O2         38.7500   49.0400   63.7000 o        318 PET     -0.591068
   6987 O3         45.7700   48.3100   65.0100 o        318 PET     -0.591068
   6988 O4         45.7700   47.0600   63.1300 os       318 PET     -0.411922
   6989 HA2        41.2400   49.9400   64.4700 ha       318 PET      0.129090
   6990 HA3        43.4700   49.7800   64.6700 ha       318 PET      0.145907
   6991 HA4        41.0200   45.8700   62.9300 ha       318 PET      0.145907
   6992 HA5        43.4500   45.7700   63.1300 ha       318 PET      0.129090
   6993 H31        47.8900   47.3800   63.4000 h1       318 PET      0.097188
   6994 H32        47.3000   45.8100   63.8000 h1       318 PET      0.097188
   6995 H41        47.2800   46.9600   60.9100 h1       318 PET      0.097188
   6996 H42        46.7700   45.3100   61.4100 h1       318 PET      0.097188
   6997 C1         49.3000   44.6000   62.1300 c        319 PET      0.825469
   6998 CA1        50.7600   44.5100   62.2000 ca       319 PET     -0.163574
   6999 CA2        51.3400   43.2800   62.5300 ca       319 PET     -0.108363
   7000 CA3        52.7200   43.0800   62.6500 ca       319 PET     -0.078542
   7001 CA4        51.6800   45.6600   62.0900 ca       319 PET     -0.078542
   7002 CA5        53.1000   45.4700   62.1800 ca       319 PET     -0.108363
   7003 CA6        53.5900   44.1200   62.4300 ca       319 PET     -0.163574
   7004 C2         55.1100   43.9500   62.5900 c        319 PET      0.825469
   7005 C3         57.2600   44.9700   62.0700 c3       319 PET      0.058627
   7006 C4         58.1800   44.5600   63.3000 c3       319 PET      0.058627
   7007 O1         48.8500   45.7000   61.5000 os       319 PET     -0.411922
   7008 O2         48.5600   43.8700   62.7300 o        319 PET     -0.591068
   7009 O3         55.5500   42.8000   62.7800 o        319 PET     -0.591068
   7010 O4         55.8600   45.1200   62.3900 os       319 PET     -0.411922
   7011 HA2        50.7400   42.3800   62.6500 ha       319 PET      0.129090
   7012 HA3        53.0300   42.0700   62.9300 ha       319 PET      0.145907
   7013 HA4        51.3400   46.6800   61.9600 ha       319 PET      0.145907
   7014 HA5        53.7800   46.3200   62.1800 ha       319 PET      0.129090
   7015 H31        57.4100   44.2200   61.2900 h1       319 PET      0.097188
   7016 H32        57.7100   45.8700   61.6400 h1       319 PET      0.097188
   7017 H41        57.8500   43.6100   63.7400 h1       319 PET      0.097188
   7018 H42        58.2000   45.4300   63.9600 h1       319 PET      0.097188
   7019 C1         60.4100   45.4800   62.6900 c        320 PET      0.825469
   7020 CA1        61.8500   45.1000   62.3700 ca       320 PET     -0.163574
   7021 CA2        62.8000   46.0000   61.9000 ca       320 PET     -0.108363
   7022 CA3        64.1200   45.6000   61.5800 ca       320 PET     -0.078542
   7023 CA4        62.2000   43.7700   62.6300 ca       320 PET     -0.078542
   7024 CA5        63.5800   43.3900   62.4200 ca       320 PET     -0.108363
   7025 CA6        64.5200   44.3100   61.9000 ca       320 PET     -0.163574
   7026 C2         66.0500   43.9100   61.7300 c        320 PET      0.825469
   7027 C3         68.1400   44.4400   60.6100 c3       320 PET      0.058627
   7028 C4         68.9400   45.7600   60.4200 c3       320 PET      0.058627
   7029 O1         59.5600   44.4200   62.7800 os       320 PET     -0.411922
   7030 O2         60.1500   46.6500   62.8800 o        320 PET     -0.591068
   7031 O3         66.5500   42.8600   62.2100 o        320 PET     -0.591068
   7032 O4         66.7500   44.7900   60.9700 os       320 PET     -0.411922
   7033 HA2        62.5200   47.0200   61.6400 ha       320 PET      0.129090
   7034 HA3        64.7200   46.3000   61.0000 ha       320 PET      0.145907
   7035 HA4        61.4400   43.0500   62.9300 ha       320 PET      0.145907
   7036 HA5        63.9500   42.3800   62.5900 ha       320 PET      0.129090
   7037 H31        68.6400   44.0400   61.5000 h1       320 PET      0.097188
   7038 H32        68.2600   43.8600   59.6900 h1       320 PET      0.097188
   7039 H41        68.7300   46.4200   61.2600 h1       320 PET      0.097188
   7040 H42        68.7900   46.1600   59.4100 h1       320 PET      0.097188
   7041 C1         71.3000   46.3300   60.4700 c        321 PET      0.825469
   7042 CA1        72.6300   45.7400   60.6800 ca       321 PET     -0.163574
   7043 CA2        73.7800   46.2400   60.1500 ca       321 PET     -0.108363
   7044 CA3        75.0600   45.7000   60.5200 ca       321 PET     -0.078542
   7045 CA4        72.7400   44.7300   61.6700 ca       321 PET     -0.078542
   7046 CA5        73.9700   44.2800   62.1600 ca       321 PET     -0.108363
   7047 CA6        75.1600   44.6900   61.5000 ca       321 PET     -0.163574
   7048 C2         76.4900   44.1900   62.0700 c        321 PET      0.825469
   7049 C3         78.7900   44.4700   62.2100 c3       321 PET      0.058627
   7050 C4         79.9400   44.7900   61.2600 c3       321 PET      0.058627
   7051 O1         70.3200   45.3600   60.4900 os       321 PET     -0.411922
   7052 O2         71.1200   47.5200   60.4900 o        321 PET     -0.591068
   7053 O3         76.6100   43.2200   62.7800 o        321 PET     -0.591068
   7054 O4         77.5500   44.7600   61.5500 os       321 PET     -0.411922
   7055 HA2        73.6700   47.0600   59.4400 ha       321 PET      0.129090
   7056 HA3        75.9900   46.0500   60.0800 ha       321 PET      0.145907
   7057 HA4        71.7800   44.4400   62.1000 ha       321 PET      0.145907
   7058 HA5        73.9600   43.6600   63.0500 ha       321 PET      0.129090
   7059 H31        78.9400   45.0500   63.1300 h1       321 PET      0.097188
   7060 H32        78.9100   43.4100   62.4500 h1       321 PET      0.097188
   7061 H41        79.7100   45.6000   60.5500 h1       321 PET      0.097188
   7062 H42        80.2000   43.9300   60.6200 h1       321 PET      0.097188
   7063 C1          2.3200   44.7200   61.7400 c        322 PET      0.825469
   7064 CA1         3.4300   45.1500   62.6200 ca       322 PET     -0.163574
   7065 CA2         4.7600   44.8800   62.2900 ca       322 PET     -0.108363
   7066 CA3         5.7400   45.4200   63.0000 ca       322 PET     -0.078542
   7067 CA4         3.2100   45.7800   63.8700 ca       322 PET     -0.078542
   7068 CA5         4.3000   46.2500   64.6500 ca       322 PET     -0.108363
   7069 CA6         5.5900   46.2500   64.1300 ca       322 PET     -0.163574
   7070 C2          6.7800   46.8500   64.8300 c        322 PET      0.825469
   7071 C3          9.2300   47.0500   64.7900 c3       322 PET      0.058627
   7072 C4          9.1900   48.6100   64.9300 c3       322 PET      0.058627
   7073 O1          1.1000   45.1500   62.1000 os       322 PET     -0.411922
   7074 O2          2.6200   43.9800   60.8100 o        322 PET     -0.591068
   7075 O3          6.6200   47.4800   65.8700 o        322 PET     -0.591068
   7076 O4          7.9700   46.6700   64.1900 os       322 PET     -0.411922
   7077 HA2         5.0300   44.3900   61.3600 ha       322 PET      0.129090
   7078 HA3         6.7400   45.2400   62.6300 ha       322 PET      0.145907
   7079 HA4         2.2400   45.7400   64.3500 ha       322 PET      0.145907
   7080 HA5         4.0300   46.7100   65.6000 ha       322 PET      0.129090
   7081 H31         9.5200   46.5100   65.7000 h1       322 PET      0.097188
   7082 H32        10.0500   46.7700   64.1200 h1       322 PET      0.097188
   7083 H41         8.5300   48.8800   65.7700 h1       322 PET      0.097188
   7084 H42         8.7600   49.0700   64.0300 h1       322 PET      0.097188
   7085 C1         10.7300   50.4600   65.4100 c        323 PET      0.825469
   7086 CA1        12.1500   50.8600   65.1900 ca       323 PET     -0.163574
   7087 CA2        12.6500   52.0900   65.6500 ca       323 PET     -0.108363
   7088 CA3        14.0500   52.2800   65.6900 ca       323 PET     -0.078542
   7089 CA4        13.1600   49.8600   64.8700 ca       323 PET     -0.078542
   7090 CA5        14.5800   50.0300   64.8600 ca       323 PET     -0.108363
   7091 CA6        15.0100   51.3000   65.2800 ca       323 PET     -0.163574
   7092 C2         16.4700   51.5900   65.3100 c        323 PET      0.825469
   7093 C3         18.1000   53.4600   65.3500 c3       323 PET      0.058627
   7094 C4         19.2200   52.9500   66.2200 c3       323 PET      0.058627
   7095 O1         10.5300   49.1500   65.0200 os       323 PET     -0.411922
   7096 O2          9.8300   51.1400   65.9100 o        323 PET     -0.591068
   7097 O3         17.3500   50.7900   64.9700 o        323 PET     -0.591068
   7098 O4         16.8000   52.9000   65.6500 os       323 PET     -0.411922
   7099 HA2        12.0200   52.9300   65.9400 ha       323 PET      0.129090
   7100 HA3        14.3900   53.2600   66.0100 ha       323 PET      0.145907
   7101 HA4        12.8700   48.8400   64.6300 ha       323 PET      0.145907
   7102 HA5        15.3000   49.3100   64.5000 ha       323 PET      0.129090
   7103 H31        18.2300   53.2700   64.2800 h1       323 PET      0.097188
   7104 H32        18.0500   54.5500   65.4800 h1       323 PET      0.097188
   7105 H41        19.0100   51.9100   66.4800 h1       323 PET      0.097188
   7106 H42        18.9300   53.3900   67.1800 h1       323 PET      0.097188
   7107 C1         20.9900   54.6000   65.5800 c        324 PET      0.825469
   7108 CA1        22.4100   54.5700   65.2000 ca       324 PET     -0.163574
   7109 CA2        23.1700   53.4000   65.3400 ca       324 PET     -0.108363
   7110 CA3        24.5400   53.3500   65.1000 ca       324 PET     -0.078542
   7111 CA4        23.0500   55.6500   64.6600 ca       324 PET     -0.078542
   7112 CA5        24.4300   55.6800   64.4900 ca       324 PET     -0.108363
   7113 CA6        25.2000   54.5100   64.7300 ca       324 PET     -0.163574
   7114 C2         26.7000   54.4400   64.4600 c        324 PET      0.825469
   7115 C3         28.7400   55.8300   63.9700 c3       324 PET      0.058627
   7116 C4         29.5900   55.8700   65.2900 c3       324 PET      0.058627
   7117 O1         20.5300   53.2700   65.6900 os       324 PET     -0.411922
   7118 O2         20.2800   55.6300   65.6800 o        324 PET     -0.591068
   7119 O3         27.3200   53.4000   64.3000 o        324 PET     -0.591068
   7120 O4         27.3800   55.6700   64.3200 os       324 PET     -0.411922
   7121 HA2        22.7800   52.4700   65.7500 ha       324 PET      0.129090
   7122 HA3        25.1200   52.4600   65.3200 ha       324 PET      0.145907
   7123 HA4        22.5700   56.6200   64.6900 ha       324 PET      0.145907
   7124 HA5        24.9400   56.5800   64.1400 ha       324 PET      0.129090
   7125 H31        29.0900   54.9200   63.4700 h1       324 PET      0.097188
   7126 H32        28.7800   56.8400   63.5400 h1       324 PET      0.097188
   7127 H41        29.8100   54.8300   65.6000 h1       324 PET      0.097188
   7128 H42        28.9600   56.3300   66.0500 h1       324 PET      0.097188
   7129 C1         31.7900   56.2600   64.3800 c        325 PET      0.825469
   7130 CA1        32.8600   57.3300   64.2400 ca       325 PET     -0.163574
   7131 CA2        34.1800   57.0400   63.8300 ca       325 PET     -0.108363
   7132 CA3        35.1800   58.0200   63.7200 ca       325 PET     -0.078542
   7133 CA4        32.6100   58.6300   64.7200 ca       325 PET     -0.078542
   7134 CA5        33.6700   59.4800   64.8500 ca       325 PET     -0.108363
   7135 CA6        34.9400   59.2800   64.2800 ca       325 PET     -0.163574
   7136 C2         35.9400   60.4200   64.2300 c        325 PET      0.825469
   7137 C3         38.1900   61.1400   64.0100 c3       325 PET      0.058627
   7138 C4         38.5600   61.2000   65.5600 c3       325 PET      0.058627
   7139 O1         30.7100   56.6600   65.0800 os       325 PET     -0.411922
   7140 O2         31.9400   55.0800   63.9700 o        325 PET     -0.591068
   7141 O3         35.5300   61.5100   64.5300 o        325 PET     -0.591068
   7142 O4         37.2300   60.1000   63.8400 os       325 PET     -0.411922
   7143 HA2        34.4600   56.0900   63.3800 ha       325 PET      0.129090
   7144 HA3        36.1600   57.7800   63.3200 ha       325 PET      0.145907
   7145 HA4        31.6700   58.8200   65.2400 ha       325 PET      0.145907
   7146 HA5        33.4300   60.4100   65.3600 ha       325 PET      0.129090
   7147 H31        39.0800   61.0300   63.3900 h1       325 PET      0.097188
   7148 H32        37.7500   62.1400   63.8700 h1       325 PET      0.097188
   7149 H41        38.6500   60.1900   65.9800 h1       325 PET      0.097188
   7150 H42        37.8000   61.7500   66.1300 h1       325 PET      0.097188
   7151 C1         39.8600   63.2100   65.6500 c        326 PET      0.825469
   7152 CA1        41.2400   63.8000   65.5700 ca       326 PET     -0.163574
   7153 CA2        42.3100   62.9500   66.0100 ca       326 PET     -0.108363
   7154 CA3        43.6400   63.4100   65.8400 ca       326 PET     -0.078542
   7155 CA4        41.5100   65.0700   65.0000 ca       326 PET     -0.078542
   7156 CA5        42.8200   65.4300   64.8200 ca       326 PET     -0.108363
   7157 CA6        43.9100   64.6800   65.3900 ca       326 PET     -0.163574
   7158 C2         45.2500   65.3200   65.4700 c        326 PET      0.825469
   7159 C3         47.5500   64.9300   65.5100 c3       326 PET      0.058627
   7160 C4         48.5000   63.8000   65.8600 c3       326 PET      0.058627
   7161 O1         39.8400   61.8600   65.5400 os       326 PET     -0.411922
   7162 O2         38.8300   63.8900   65.6700 o        326 PET     -0.591068
   7163 O3         45.4100   66.4900   65.2800 o        326 PET     -0.591068
   7164 O4         46.2500   64.4900   65.7300 os       326 PET     -0.411922
   7165 HA2        42.1200   62.0000   66.4900 ha       326 PET      0.129090
   7166 HA3        44.4600   62.7400   66.0800 ha       326 PET      0.145907
   7167 HA4        40.7000   65.6900   64.6400 ha       326 PET      0.145907
   7168 HA5        43.0700   66.3400   64.2700 ha       326 PET      0.129090
   7169 H31        47.6900   65.2000   64.4600 h1       326 PET      0.097188
   7170 H32        47.8000   65.7800   66.1700 h1       326 PET      0.097188
   7171 H41        48.2900   62.8600   65.3400 h1       326 PET      0.097188
   7172 H42        48.6100   63.6500   66.9400 h1       326 PET      0.097188
   7173 C1         51.0000   63.9100   65.8300 c        327 PET      0.825469
   7174 CA1        52.1300   64.8200   65.4000 ca       327 PET     -0.163574
   7175 CA2        51.9600   66.1900   64.9800 ca       327 PET     -0.108363
   7176 CA3        53.0400   66.9500   64.5000 ca       327 PET     -0.078542
   7177 CA4        53.4300   64.3500   65.5100 ca       327 PET     -0.078542
   7178 CA5        54.4900   65.1600   65.0800 ca       327 PET     -0.108363
   7179 CA6        54.2900   66.4500   64.5000 ca       327 PET     -0.163574
   7180 C2         55.4800   67.2800   64.0600 c        327 PET      0.825469
   7181 C3         57.7000   68.0400   64.6100 c3       327 PET      0.058627
   7182 C4         58.5300   67.5500   63.4000 c3       327 PET      0.058627
   7183 O1         49.7700   64.2800   65.3200 os       327 PET     -0.411922
   7184 O2         51.1300   62.9600   66.5700 o        327 PET     -0.591068
   7185 O3         55.3600   68.2100   63.2600 o        327 PET     -0.591068
   7186 O4         56.5600   67.1800   64.8300 os       327 PET     -0.411922
   7187 HA2        50.9500   66.5500   65.1500 ha       327 PET      0.129090
   7188 HA3        52.9100   67.9600   64.1300 ha       327 PET      0.145907
   7189 HA4        53.7000   63.4300   66.0100 ha       327 PET      0.145907
   7190 HA5        55.5100   64.8800   65.3200 ha       327 PET      0.129090
   7191 H31        57.3400   69.0700   64.5200 h1       327 PET      0.097188
   7192 H32        58.3700   68.1000   65.4800 h1       327 PET      0.097188
   7193 H41        57.9300   67.6800   62.4900 h1       327 PET      0.097188
   7194 H42        58.8600   66.5000   63.3900 h1       327 PET      0.097188
   7195 C1         59.6800   69.5700   62.7700 c        328 PET      0.825469
   7196 CA1        61.0400   70.2600   62.7200 ca       328 PET     -0.163574
   7197 CA2        62.2000   69.5600   62.9200 ca       328 PET     -0.108363
   7198 CA3        63.4800   70.1300   62.9200 ca       328 PET     -0.078542
   7199 CA4        61.0900   71.6600   62.7400 ca       328 PET     -0.078542
   7200 CA5        62.3300   72.3100   62.8300 ca       328 PET     -0.108363
   7201 CA6        63.5200   71.5500   62.8300 ca       328 PET     -0.163574
   7202 C2         64.9100   72.2100   62.7900 c        328 PET      0.825469
   7203 C3         67.0400   72.0100   61.7100 c3       328 PET      0.058627
   7204 C4         68.0100   70.9700   61.3800 c3       328 PET      0.058627
   7205 O1         59.7100   68.3600   63.3900 os       328 PET     -0.411922
   7206 O2         58.6800   70.1500   62.4500 o        328 PET     -0.591068
   7207 O3         65.1300   73.3100   63.2800 o        328 PET     -0.591068
   7208 O4         65.7900   71.4700   62.1700 os       328 PET     -0.411922
   7209 HA2        62.1700   68.4700   62.8900 ha       328 PET      0.129090
   7210 HA3        64.3800   69.5300   62.9700 ha       328 PET      0.145907
   7211 HA4        60.1700   72.2000   62.5500 ha       328 PET      0.145907
   7212 HA5        62.3600   73.4000   62.8400 ha       328 PET      0.129090
   7213 H31        66.9200   72.6600   60.8400 h1       328 PET      0.097188
   7214 H32        67.4600   72.6300   62.5100 h1       328 PET      0.097188
   7215 H41        67.7600   70.6400   60.3600 h1       328 PET      0.097188
   7216 H42        67.9400   70.0800   62.0200 h1       328 PET      0.097188
   7217 C1         70.4600   70.6200   61.6600 c        329 PET      0.825469
   7218 CA1        71.8600   71.2500   61.9100 ca       329 PET     -0.163574
   7219 CA2        72.8900   70.3600   62.2100 ca       329 PET     -0.108363
   7220 CA3        74.1700   70.8200   62.5500 ca       329 PET     -0.078542
   7221 CA4        72.1100   72.6000   61.7600 ca       329 PET     -0.078542
   7222 CA5        73.3900   73.0500   62.0400 ca       329 PET     -0.108363
   7223 CA6        74.4700   72.1600   62.4100 ca       329 PET     -0.163574
   7224 C2         75.8500   72.7700   62.7300 c        329 PET      0.825469
   7225 C3         78.2100   72.3100   63.1400 c3       329 PET      0.058627
   7226 C4         78.7100   72.9800   61.8400 c3       329 PET      0.058627
   7227 O1         69.3900   71.4600   61.5300 os       329 PET     -0.411922
   7228 O2         70.3000   69.4200   61.5800 o        329 PET     -0.591068
   7229 O3         75.9800   73.9700   62.7800 o        329 PET     -0.591068
   7230 O4         76.8300   71.8300   62.9200 os       329 PET     -0.411922
   7231 HA2        72.6700   69.3100   62.4100 ha       329 PET      0.129090
   7232 HA3        74.9000   70.0900   62.8900 ha       329 PET      0.145907
   7233 HA4        71.3400   73.3500   61.5800 ha       329 PET      0.145907
   7234 HA5        73.6500   74.1000   61.9400 ha       329 PET      0.129090
   7235 H31        78.2400   73.0900   63.9200 h1       329 PET      0.097188
   7236 H32        78.7900   71.4900   63.5900 h1       329 PET      0.097188
   7237 H41        78.4700   74.0300   61.6500 h1       329 PET      0.097188
   7238 H42        78.2400   72.4200   61.0100 h1       329 PET      0.097188
   7239 C1          0.9300   73.5700   60.9700 c        330 PET      0.825469
   7240 CA1         2.3300   73.3500   61.2200 ca       330 PET     -0.163574
   7241 CA2         2.8300   72.1300   61.7500 ca       330 PET     -0.108363
   7242 CA3         4.2400   71.9800   62.0000 ca       330 PET     -0.078542
   7243 CA4         3.2600   74.2800   60.8800 ca       330 PET     -0.078542
   7244 CA5         4.6100   74.0700   61.0500 ca       330 PET     -0.108363
   7245 CA6         5.1800   72.9500   61.6500 ca       330 PET     -0.163574
   7246 C2          6.6500   72.8400   61.8100 c        330 PET      0.825469
   7247 C3          8.8300   73.9300   61.7300 c3       330 PET      0.058627
   7248 C4          9.4800   75.3000   61.7800 c3       330 PET      0.058627
   7249 O1          0.1300   72.7400   61.7000 os       330 PET     -0.411922
   7250 O2          0.5400   74.4400   60.2000 o        330 PET     -0.591068
   7251 O3          7.1300   71.8300   62.2800 o        330 PET     -0.591068
   7252 O4          7.4000   73.9700   61.5700 os       330 PET     -0.411922
   7253 HA2         2.1500   71.3400   62.0400 ha       330 PET      0.129090
   7254 HA3         4.6400   71.0300   62.3500 ha       330 PET      0.145907
   7255 HA4         2.8300   75.1500   60.3900 ha       330 PET      0.145907
   7256 HA5         5.2600   74.9100   60.8000 ha       330 PET      0.129090
   7257 H31         9.0300   73.4600   62.7100 h1       330 PET      0.097188
   7258 H32         9.2800   73.3400   60.9200 h1       330 PET      0.097188
   7259 H41        10.3600   75.4800   62.4100 h1       330 PET      0.097188
   7260 H42         9.5100   75.7500   60.7800 h1       330 PET      0.097188
   7261 C1         31.8900   20.4500   65.0000 c        331 PET      0.825469
   7262 CA1        33.0800   19.5700   65.0600 ca       331 PET     -0.163574
   7263 CA2        34.3700   20.0700   64.8700 ca       331 PET     -0.108363
   7264 CA3        35.4800   19.1900   64.8900 ca       331 PET     -0.078542
   7265 CA4        32.8700   18.1600   65.0300 ca       331 PET     -0.078542
   7266 CA5        33.9100   17.2900   64.8200 ca       331 PET     -0.108363
   7267 CA6        35.2300   17.8200   64.7500 ca       331 PET     -0.163574
   7268 C2         36.3200   16.8400   64.4700 c        331 PET      0.825469
   7269 C3         38.6600   16.4300   64.6800 c3       331 PET      0.058627
   7270 C4         38.8400   15.8700   66.1300 c3       331 PET      0.058627
   7271 O1         32.1200   21.6000   65.6800 os       331 PET     -0.411922
   7272 O2         30.8300   20.2100   64.4200 o        331 PET     -0.591068
   7273 O3         36.1200   15.6800   64.2200 o        331 PET     -0.591068
   7274 O4         37.5800   17.4000   64.6800 os       331 PET     -0.411922
   7275 HA2        34.5400   21.1400   64.8500 ha       331 PET      0.129090
   7276 HA3        36.5100   19.5400   64.9200 ha       331 PET      0.145907
   7277 HA4        31.8700   17.8200   65.2500 ha       331 PET      0.145907
   7278 HA5        33.7600   16.2200   64.7200 ha       331 PET      0.129090
   7279 H31        38.3800   15.5500   64.0700 h1       331 PET      0.097188
   7280 H32        39.5400   16.9000   64.2400 h1       331 PET      0.097188
   7281 H41        37.9600   15.3200   66.4800 h1       331 PET      0.097188
   7282 H42        38.9600   16.7200   66.8200 h1       331 PET      0.097188
   7283 C1         40.8200   14.9800   67.2900 c        332 PET      0.825469
   7284 CA1        42.0000   14.0700   67.3300 ca       332 PET     -0.163574
   7285 CA2        42.5700   13.6400   66.1400 ca       332 PET     -0.108363
   7286 CA3        43.6500   12.7400   66.2200 ca       332 PET     -0.078542
   7287 CA4        42.4900   13.6900   68.6000 ca       332 PET     -0.078542
   7288 CA5        43.5500   12.8100   68.6300 ca       332 PET     -0.108363
   7289 CA6        44.1400   12.2800   67.4700 ca       332 PET     -0.163574
   7290 C2         45.2700   11.3900   67.5600 c        332 PET      0.825469
   7291 C3         47.0800   10.4600   68.9400 c3       332 PET      0.058627
   7292 C4         48.2500   11.1300   68.2100 c3       332 PET      0.058627
   7293 O1         40.0500   15.0400   66.1400 os       332 PET     -0.411922
   7294 O2         40.6200   15.7000   68.2800 o        332 PET     -0.591068
   7295 O3         45.7500   10.9400   66.5900 o        332 PET     -0.591068
   7296 O4         45.9000   11.2700   68.7300 os       332 PET     -0.411922
   7297 HA2        42.1400   14.0000   65.2100 ha       332 PET      0.129090
   7298 HA3        44.0600   12.4000   65.2700 ha       332 PET      0.145907
   7299 HA4        41.8900   14.0900   69.4100 ha       332 PET      0.145907
   7300 HA5        43.9000   12.5400   69.6200 ha       332 PET      0.129090
   7301 H31        47.2300   10.2800   70.0100 h1       332 PET      0.097188
   7302 H32        46.8800    9.5500   68.3700 h1       332 PET      0.097188
   7303 H41        48.1300   12.2200   68.3500 h1       332 PET      0.097188
   7304 H42        48.0800   10.8700   67.1600 h1       332 PET      0.097188
   7305 C1         49.9200    9.3700   68.3500 c        333 PET      0.825469
   7306 CA1        51.3200    9.0800   68.5500 ca       333 PET     -0.163574
   7307 CA2        52.1900   10.1600   68.6100 ca       333 PET     -0.108363
   7308 CA3        53.5900    9.9600   68.7200 ca       333 PET     -0.078542
   7309 CA4        51.8100    7.7900   68.4300 ca       333 PET     -0.078542
   7310 CA5        53.2200    7.5900   68.4700 ca       333 PET     -0.108363
   7311 CA6        54.1300    8.6700   68.6600 ca       333 PET     -0.163574
   7312 C2         55.6300    8.4700   68.8600 c        333 PET      0.825469
   7313 C3         57.4400    7.0200   68.5700 c3       333 PET      0.058627
   7314 C4         57.6500    5.5400   68.5300 c3       333 PET      0.058627
   7315 O1         49.4700   10.6600   68.6800 os       333 PET     -0.411922
   7316 O2         49.1400    8.5400   67.8900 o        333 PET     -0.591068
   7317 O3         56.3000    9.4300   69.0700 o        333 PET     -0.591068
   7318 O4         56.0900    7.2000   68.6200 os       333 PET     -0.411922
   7319 HA2        51.8400   11.1900   68.5600 ha       333 PET      0.129090
   7320 HA3        54.1800   10.8800   68.7800 ha       333 PET      0.145907
   7321 HA4        51.1600    6.9600   68.1800 ha       333 PET      0.145907
   7322 HA5        53.6100    6.5900   68.2800 ha       333 PET      0.129090
   7323 H31        57.9000    7.4900   67.6900 h1       333 PET      0.097188
   7324 H32        57.9200    7.4500   69.4500 h1       333 PET      0.097188
   7325 H41        57.2500    5.1600   67.5800 h1       333 PET      0.097188
   7326 H42        57.0500    5.0700   69.3200 h1       333 PET      0.097188
   7327 C1         59.2700   83.8800   68.7100 c        334 PET      0.825469
   7328 CA1        60.7200   83.6100   68.6700 ca       334 PET     -0.163574
   7329 CA2        61.1300   82.2200   68.5900 ca       334 PET     -0.108363
   7330 CA3        62.4900   81.7900   68.6900 ca       334 PET     -0.078542
   7331 CA4        61.7100   84.6000   68.6600 ca       334 PET     -0.078542
   7332 CA5        63.0900   84.1800   68.6300 ca       334 PET     -0.108363
   7333 CA6        63.5100   82.7900   68.6800 ca       334 PET     -0.163574
   7334 C2         64.9800   82.5000   68.7300 c        334 PET      0.825469
   7335 C3         66.6300   80.8400   68.5900 c3       334 PET      0.058627
   7336 C4         66.8000   79.3300   68.6100 c3       334 PET      0.058627
   7337 O1         59.0100   85.2500   68.7600 os       334 PET     -0.411922
   7338 O2         58.4200   83.0500   68.5300 o        334 PET     -0.591068
   7339 O3         65.8100   83.4000   68.7700 o        334 PET     -0.591068
   7340 O4         65.2800   81.1700   68.6900 os       334 PET     -0.411922
   7341 HA2        60.3300   81.4900   68.5600 ha       334 PET      0.129090
   7342 HA3        62.7200   80.7300   68.7300 ha       334 PET      0.145907
   7343 HA4        61.4500   85.6500   68.6700 ha       334 PET      0.145907
   7344 HA5        63.9000   84.9100   68.6900 ha       334 PET      0.129090
   7345 H31        66.9700   81.1800   67.6000 h1       334 PET      0.097188
   7346 H32        67.2400   81.3100   69.3700 h1       334 PET      0.097188
   7347 H41        66.2800   78.8200   67.7900 h1       334 PET      0.097188
   7348 H42        66.4400   78.8900   69.5500 h1       334 PET      0.097188
   7349 C1         68.8000   77.9700   68.7900 c        335 PET      0.825469
   7350 CA1        70.3300   78.1000   68.8600 ca       335 PET     -0.163574
   7351 CA2        70.9900   79.3200   68.9000 ca       335 PET     -0.108363
   7352 CA3        72.3600   79.4900   68.7700 ca       335 PET     -0.078542
   7353 CA4        71.1800   76.9800   68.8300 ca       335 PET     -0.078542
   7354 CA5        72.5500   77.1000   68.7200 ca       335 PET     -0.108363
   7355 CA6        73.1700   78.3700   68.5800 ca       335 PET     -0.163574
   7356 C2         74.6500   78.5000   68.5600 c        335 PET      0.825469
   7357 C3         76.8100   77.3300   68.7800 c3       335 PET      0.058627
   7358 C4         77.2400   75.8400   69.0100 c3       335 PET      0.058627
   7359 O1         68.2200   79.1500   68.4700 os       335 PET     -0.411922
   7360 O2         68.2900   76.8600   68.8900 o        335 PET     -0.591068
   7361 O3         75.2200   79.5300   68.3100 o        335 PET     -0.591068
   7362 O4         75.3600   77.3200   68.8800 os       335 PET     -0.411922
   7363 HA2        70.4600   80.2500   69.0900 ha       335 PET      0.129090
   7364 HA3        72.8100   80.4800   68.6800 ha       335 PET      0.145907
   7365 HA4        70.7300   75.9900   68.8100 ha       335 PET      0.145907
   7366 HA5        73.1800   76.2200   68.6400 ha       335 PET      0.129090
   7367 H31        77.1700   77.5800   67.7800 h1       335 PET      0.097188
   7368 H32        77.3300   77.9400   69.5400 h1       335 PET      0.097188
   7369 H41        76.6800   75.2300   68.3100 h1       335 PET      0.097188
   7370 H42        77.1200   75.6400   70.0800 h1       335 PET      0.097188
   7371 C1         -0.8800   74.5500   68.3600 c        336 PET      0.825469
   7372 CA1         0.5900   74.5300   68.0200 ca       336 PET     -0.163574
   7373 CA2         1.1200   73.5400   67.1700 ca       336 PET     -0.108363
   7374 CA3         2.5200   73.4500   67.0700 ca       336 PET     -0.078542
   7375 CA4         1.4000   75.4900   68.5900 ca       336 PET     -0.078542
   7376 CA5         2.7600   75.4600   68.3400 ca       336 PET     -0.108363
   7377 CA6         3.3700   74.4500   67.5700 ca       336 PET     -0.163574
   7378 C2          4.9500   74.2700   67.5000 c        336 PET      0.825469
   7379 C3          7.0200   75.3000   68.1600 c3       336 PET      0.058627
   7380 C4          7.4600   76.7200   68.2000 c3       336 PET      0.058627
   7381 O1         -1.3800   75.8000   68.6000 os       336 PET     -0.411922
   7382 O2         -1.5600   73.5400   68.2500 o        336 PET     -0.591068
   7383 O3          5.4700   73.2200   67.1400 o        336 PET     -0.591068
   7384 O4          5.5700   75.3600   67.8600 os       336 PET     -0.411922
   7385 HA2         0.4700   72.7900   66.7200 ha       336 PET      0.129090
   7386 HA3         3.0900   72.7000   66.5300 ha       336 PET      0.145907
   7387 HA4         0.9700   76.3200   69.1500 ha       336 PET      0.145907
   7388 HA5         3.4400   76.1400   68.8500 ha       336 PET      0.129090
   7389 H31         7.1100   74.6600   69.0500 h1       336 PET      0.097188
   7390 H32         7.5000   74.8700   67.2700 h1       336 PET      0.097188
   7391 H41         7.2000   77.2300   69.1400 h1       336 PET      0.097188
   7392 H42         7.1500   77.2800   67.3100 h1       336 PET      0.097188
   7393 C1          9.6200   77.7700   68.2800 c        337 PET      0.825469
   7394 CA1        11.1000   77.5000   68.4200 ca       337 PET     -0.163574
   7395 CA2        11.7300   76.3600   67.9500 ca       337 PET     -0.108363
   7396 CA3        13.0600   76.0700   68.2200 ca       337 PET     -0.078542
   7397 CA4        11.9400   78.5500   68.8600 ca       337 PET     -0.078542
   7398 CA5        13.3400   78.3500   68.9000 ca       337 PET     -0.108363
   7399 CA6        13.9000   77.1200   68.6200 ca       337 PET     -0.163574
   7400 C2         15.3700   76.9000   68.7700 c        337 PET      0.825469
   7401 C3         17.4900   78.0600   69.3700 c3       337 PET      0.058627
   7402 C4         18.1300   79.3700   68.6200 c3       337 PET      0.058627
   7403 O1          8.8800   76.6200   68.1500 os       337 PET     -0.411922
   7404 O2          9.1200   78.8600   68.4700 o        337 PET     -0.591068
   7405 O3         15.9100   75.7900   68.6600 o        337 PET     -0.591068
   7406 O4         16.0900   78.0700   69.0300 os       337 PET     -0.411922
   7407 HA2        11.1200   75.6000   67.4800 ha       337 PET      0.129090
   7408 HA3        13.4400   75.0600   68.0800 ha       337 PET      0.145907
   7409 HA4        11.4900   79.5400   68.9400 ha       337 PET      0.145907
   7410 HA5        13.9400   79.1900   69.2600 ha       337 PET      0.129090
   7411 H31        17.7100   77.9700   70.4400 h1       337 PET      0.097188
   7412 H32        18.0200   77.1700   69.0200 h1       337 PET      0.097188
   7413 H41        18.0000   80.1900   69.3400 h1       337 PET      0.097188
   7414 H42        17.6200   79.5500   67.6600 h1       337 PET      0.097188
   7415 C1         20.2900   80.0900   67.8400 c        338 PET      0.825469
   7416 CA1        21.8100   79.8000   67.7600 ca       338 PET     -0.163574
   7417 CA2        22.7100   80.7100   67.0900 ca       338 PET     -0.108363
   7418 CA3        24.0100   80.5400   66.9900 ca       338 PET     -0.078542
   7419 CA4        22.3000   78.7000   68.3900 ca       338 PET     -0.078542
   7420 CA5        23.7100   78.4700   68.3000 ca       338 PET     -0.108363
   7421 CA6        24.5500   79.3600   67.5700 ca       338 PET     -0.163574
   7422 C2         26.0200   78.9300   67.4400 c        338 PET      0.825469
   7423 C3         27.6300   77.3200   68.4400 c3       338 PET      0.058627
   7424 C4         28.3000   76.8900   67.1000 c3       338 PET      0.058627
   7425 O1         19.6000   79.1700   68.4800 os       338 PET     -0.411922
   7426 O2         19.7800   81.1000   67.4600 o        338 PET     -0.591068
   7427 O3         26.7900   79.4900   66.6300 o        338 PET     -0.591068
   7428 O4         26.3000   77.7800   68.2000 os       338 PET     -0.411922
   7429 HA2        22.2700   81.5700   66.5800 ha       338 PET      0.129090
   7430 HA3        24.6700   81.1500   66.3700 ha       338 PET      0.145907
   7431 HA4        21.7300   78.0100   68.9900 ha       338 PET      0.145907
   7432 HA5        24.0600   77.6100   68.8500 ha       338 PET      0.129090
   7433 H31        28.2800   77.9900   69.0100 h1       338 PET      0.097188
   7434 H32        27.5900   76.4300   69.0900 h1       338 PET      0.097188
   7435 H41        28.5800   77.7400   66.4600 h1       338 PET      0.097188
   7436 H42        27.6800   76.1500   66.5800 h1       338 PET      0.097188
   7437 C1         30.5700   76.7600   68.0000 c        339 PET      0.825469
   7438 CA1        31.8700   76.0300   68.2500 ca       339 PET     -0.163574
   7439 CA2        31.9100   74.6300   68.0000 ca       339 PET     -0.108363
   7440 CA3        33.1500   73.9500   68.0800 ca       339 PET     -0.078542
   7441 CA4        33.0700   76.6500   68.6600 ca       339 PET     -0.078542
   7442 CA5        34.1700   75.8900   68.9900 ca       339 PET     -0.108363
   7443 CA6        34.2800   74.5700   68.6300 ca       339 PET     -0.163574
   7444 C2         35.6300   73.8800   68.6900 c        339 PET      0.825469
   7445 C3         36.9100   71.8300   68.1300 c3       339 PET      0.058627
   7446 C4         37.9900   72.4000   67.2600 c3       339 PET      0.058627
   7447 O1         29.5600   76.1200   67.4200 os       339 PET     -0.411922
   7448 O2         30.4600   77.9100   68.3200 o        339 PET     -0.591068
   7449 O3         36.6100   74.3800   69.3200 o        339 PET     -0.591068
   7450 O4         35.7200   72.6600   68.0100 os       339 PET     -0.411922
   7451 HA2        31.1100   74.0500   67.5400 ha       339 PET      0.129090
   7452 HA3        33.2400   72.9200   67.7700 ha       339 PET      0.145907
   7453 HA4        33.1000   77.6900   68.9700 ha       339 PET      0.145907
   7454 HA5        35.1100   76.3800   69.2300 ha       339 PET      0.129090
   7455 H31        37.2000   71.7900   69.1900 h1       339 PET      0.097188
   7456 H32        36.6000   70.7900   68.0000 h1       339 PET      0.097188
   7457 H41        37.9200   73.5000   67.3400 h1       339 PET      0.097188
   7458 H42        37.9100   72.2000   66.1800 h1       339 PET      0.097188
   7459 C1         40.3700   72.2800   67.0400 c        340 PET      0.825469
   7460 CA1        41.6400   71.6700   67.5300 ca       340 PET     -0.163574
   7461 CA2        41.4800   70.6000   68.4700 ca       340 PET     -0.108363
   7462 CA3        42.5600   69.8100   68.8400 ca       340 PET     -0.078542
   7463 CA4        42.8900   71.8600   66.8600 ca       340 PET     -0.078542
   7464 CA5        44.0000   71.0900   67.3500 ca       340 PET     -0.108363
   7465 CA6        43.8100   70.0700   68.3200 ca       340 PET     -0.163574
   7466 C2         44.9100   69.2300   68.7800 c        340 PET      0.825469
   7467 C3         47.3600   68.9400   68.9800 c3       340 PET      0.058627
   7468 C4         47.4800   67.4700   68.5500 c3       340 PET      0.058627
   7469 O1         39.2300   72.0100   67.8100 os       340 PET     -0.411922
   7470 O2         40.2900   72.9100   66.0300 o        340 PET     -0.591068
   7471 O3         44.7000   68.1800   69.3800 o        340 PET     -0.591068
   7472 O4         46.2200   69.6600   68.4900 os       340 PET     -0.411922
   7473 HA2        40.5000   70.3300   68.8700 ha       340 PET      0.129090
   7474 HA3        42.4100   68.9100   69.4200 ha       340 PET      0.145907
   7475 HA4        43.0400   72.6300   66.1100 ha       340 PET      0.145907
   7476 HA5        45.0000   71.2500   66.9400 ha       340 PET      0.129090
   7477 H31        48.2400   69.5100   68.6400 h1       340 PET      0.097188
   7478 H32        47.4300   68.8700   70.0700 h1       340 PET      0.097188
   7479 H41        47.2200   67.3100   67.5000 h1       340 PET      0.097188
   7480 H42        46.9300   66.8000   69.2200 h1       340 PET      0.097188
   7481 C1         49.3000   65.9800   68.8300 c        341 PET      0.825469
   7482 CA1        50.8000   65.7900   68.8900 ca       341 PET     -0.163574
   7483 CA2        51.7200   66.7900   68.6000 ca       341 PET     -0.108363
   7484 CA3        53.1000   66.5200   68.4800 ca       341 PET     -0.078542
   7485 CA4        51.3200   64.4600   68.8700 ca       341 PET     -0.078542
   7486 CA5        52.7600   64.2200   68.8900 ca       341 PET     -0.108363
   7487 CA6        53.6800   65.2800   68.7800 ca       341 PET     -0.163574
   7488 C2         55.1500   65.0500   68.6700 c        341 PET      0.825469
   7489 C3         56.9400   63.3800   68.7800 c3       341 PET      0.058627
   7490 C4         57.2000   62.0300   68.0700 c3       341 PET      0.058627
   7491 O1         48.8500   67.1700   68.4200 os       341 PET     -0.411922
   7492 O2         48.5900   65.0200   68.9500 o        341 PET     -0.591068
   7493 O3         55.9000   65.9400   68.4300 o        341 PET     -0.591068
   7494 O4         55.5200   63.7300   68.6400 os       341 PET     -0.411922
   7495 HA2        51.3200   67.7500   68.2800 ha       341 PET      0.129090
   7496 HA3        53.7800   67.3200   68.2100 ha       341 PET      0.145907
   7497 HA4        50.7800   63.5400   69.0800 ha       341 PET      0.145907
   7498 HA5        53.1600   63.2200   69.0000 ha       341 PET      0.129090
   7499 H31        57.6200   64.1800   68.4600 h1       341 PET      0.097188
   7500 H32        57.2500   63.2200   69.8200 h1       341 PET      0.097188
   7501 H41        57.2500   62.1400   66.9800 h1       341 PET      0.097188
   7502 H42        56.4000   61.3000   68.2500 h1       341 PET      0.097188
   7503 C1         59.6700   61.9600   68.2400 c        342 PET      0.825469
   7504 CA1        60.9000   61.0500   68.5000 ca       342 PET     -0.163574
   7505 CA2        60.7500   59.6700   68.8100 ca       342 PET     -0.108363
   7506 CA3        61.8700   58.8300   68.9700 ca       342 PET     -0.078542
   7507 CA4        62.1600   61.5600   68.2800 ca       342 PET     -0.078542
   7508 CA5        63.2800   60.7500   68.5900 ca       342 PET     -0.108363
   7509 CA6        63.1900   59.3200   68.7300 ca       342 PET     -0.163574
   7510 C2         64.3700   58.4100   68.9200 c        342 PET      0.825469
   7511 C3         66.7600   58.2900   68.8100 c3       342 PET      0.058627
   7512 C4         68.0500   59.2000   68.8100 c3       342 PET      0.058627
   7513 O1         58.4500   61.3800   68.5200 os       342 PET     -0.411922
   7514 O2         59.8500   63.0900   67.8600 o        342 PET     -0.591068
   7515 O3         64.2700   57.2300   69.3100 o        342 PET     -0.591068
   7516 O4         65.5900   59.0800   68.7200 os       342 PET     -0.411922
   7517 HA2        59.7400   59.2900   68.9600 ha       342 PET      0.129090
   7518 HA3        61.6800   57.7700   69.1000 ha       342 PET      0.145907
   7519 HA4        62.3500   62.6100   68.0800 ha       342 PET      0.145907
   7520 HA5        64.2800   61.1900   68.5100 ha       342 PET      0.129090
   7521 H31        66.8100   57.7000   69.7400 h1       342 PET      0.097188
   7522 H32        66.7300   57.5600   68.0000 h1       342 PET      0.097188
   7523 H41        68.2900   59.7600   69.7200 h1       342 PET      0.097188
   7524 H42        67.8300   59.9600   68.0600 h1       342 PET      0.097188
   7525 C1         69.4400   57.6800   67.2900 c        343 PET      0.825469
   7526 CA1        70.9000   57.3800   67.0500 ca       343 PET     -0.163574
   7527 CA2        71.9400   57.8200   67.9200 ca       343 PET     -0.108363
   7528 CA3        73.2900   57.6400   67.5800 ca       343 PET     -0.078542
   7529 CA4        71.1600   56.6500   65.9100 ca       343 PET     -0.078542
   7530 CA5        72.5200   56.3300   65.6900 ca       343 PET     -0.108363
   7531 CA6        73.5600   56.9000   66.4400 ca       343 PET     -0.163574
   7532 C2         75.0500   56.6400   66.0200 c        343 PET      0.825469
   7533 C3         77.1700   57.8000   65.6600 c3       343 PET      0.058627
   7534 C4         77.5300   59.1300   64.9900 c3       343 PET      0.058627
   7535 O1         69.2300   58.3500   68.4800 os       343 PET     -0.411922
   7536 O2         68.5600   57.5600   66.4600 o        343 PET     -0.591068
   7537 O3         75.5900   55.5600   65.8300 o        343 PET     -0.591068
   7538 O4         75.7600   57.7900   65.9900 os       343 PET     -0.411922
   7539 HA2        71.7300   58.3800   68.8200 ha       343 PET      0.129090
   7540 HA3        74.0500   57.9300   68.3000 ha       343 PET      0.145907
   7541 HA4        70.3600   56.2700   65.2800 ha       343 PET      0.145907
   7542 HA5        72.8100   55.6700   64.8800 ha       343 PET      0.129090
   7543 H31        77.8000   57.4400   66.4800 h1       343 PET      0.097188
   7544 H32        77.2700   56.9900   64.9200 h1       343 PET      0.097188
   7545 H41        77.0700   59.9000   65.6300 h1       343 PET      0.097188
   7546 H42        77.0000   59.1000   64.0200 h1       343 PET      0.097188
   7547 C1         -0.4100   60.2600   65.5200 c        344 PET      0.825469
   7548 CA1         1.0800   60.2000   65.4800 ca       344 PET     -0.163574
   7549 CA2         1.8900   61.3300   65.7200 ca       344 PET     -0.108363
   7550 CA3         3.2900   61.1900   65.9200 ca       344 PET     -0.078542
   7551 CA4         1.7300   58.9700   65.2400 ca       344 PET     -0.078542
   7552 CA5         3.1000   58.8700   65.4000 ca       344 PET     -0.108363
   7553 CA6         3.9000   59.9800   65.7500 ca       344 PET     -0.163574
   7554 C2          5.4200   59.7900   65.8900 c        344 PET      0.825469
   7555 C3          7.4400   60.9400   66.6200 c3       344 PET      0.058627
   7556 C4          7.8000   60.3800   68.0400 c3       344 PET      0.058627
   7557 O1         -1.0100   59.2200   64.8900 os       344 PET     -0.411922
   7558 O2         -0.9900   61.0900   66.1900 o        344 PET     -0.591068
   7559 O3          6.0600   58.7200   65.8200 o        344 PET     -0.591068
   7560 O4          5.9900   60.9800   66.3400 os       344 PET     -0.411922
   7561 HA2         1.4700   62.3300   65.7900 ha       344 PET      0.129090
   7562 HA3         3.9800   62.0200   66.0700 ha       344 PET      0.145907
   7563 HA4         1.1800   58.1300   64.8400 ha       344 PET      0.145907
   7564 HA5         3.6000   57.9200   65.2700 ha       344 PET      0.129090
   7565 H31         7.9600   60.3900   65.8200 h1       344 PET      0.097188
   7566 H32         7.8300   61.9600   66.6500 h1       344 PET      0.097188
   7567 H41         7.3900   59.3700   68.1700 h1       344 PET      0.097188
   7568 H42         7.3400   61.0300   68.7800 h1       344 PET      0.097188
   7569 C1         10.0000   61.4100   68.3300 c        345 PET      0.825469
   7570 CA1        11.4000   60.9600   68.6100 ca       345 PET     -0.163574
   7571 CA2        11.8200   59.6700   68.6000 ca       345 PET     -0.108363
   7572 CA3        13.1700   59.3600   68.7300 ca       345 PET     -0.078542
   7573 CA4        12.3000   61.9400   69.0000 ca       345 PET     -0.078542
   7574 CA5        13.6800   61.6500   69.0400 ca       345 PET     -0.108363
   7575 CA6        14.1100   60.3500   68.8900 ca       345 PET     -0.163574
   7576 C2         15.5100   59.8700   68.8800 c        345 PET      0.825469
   7577 C3         17.8300   60.7000   68.8300 c3       345 PET      0.058627
   7578 C4         18.5500   61.9800   68.2800 c3       345 PET      0.058627
   7579 O1          9.2400   60.3100   68.2900 os       345 PET     -0.411922
   7580 O2          9.6600   62.5600   68.2100 o        345 PET     -0.591068
   7581 O3         15.8100   58.7300   68.6300 o        345 PET     -0.591068
   7582 O4         16.4400   60.8900   69.1000 os       345 PET     -0.411922
   7583 HA2        11.1900   58.8100   68.3700 ha       345 PET      0.129090
   7584 HA3        13.4900   58.3200   68.7600 ha       345 PET      0.145907
   7585 HA4        11.9900   62.9800   69.0600 ha       345 PET      0.145907
   7586 HA5        14.3900   62.4600   69.2000 ha       345 PET      0.129090
   7587 H31        18.3000   60.3400   69.7600 h1       345 PET      0.097188
   7588 H32        17.9100   59.9000   68.0700 h1       345 PET      0.097188
   7589 H41        18.4300   62.8600   68.9300 h1       345 PET      0.097188
   7590 H42        18.0400   62.3600   67.3900 h1       345 PET      0.097188
   7591 C1         20.7500   62.7100   67.8900 c        346 PET      0.825469
   7592 CA1        22.1500   62.2600   67.6300 ca       346 PET     -0.163574
   7593 CA2        23.0200   63.0500   66.8300 ca       346 PET     -0.108363
   7594 CA3        24.2400   62.5200   66.4600 ca       346 PET     -0.078542
   7595 CA4        22.5900   61.0200   68.1900 ca       346 PET     -0.078542
   7596 CA5        23.8500   60.6400   68.0600 ca       346 PET     -0.108363
   7597 CA6        24.6700   61.3400   67.1500 ca       346 PET     -0.163574
   7598 C2         26.0300   60.7800   66.7500 c        346 PET      0.825469
   7599 C3         28.0700   61.1900   65.4000 c3       346 PET      0.058627
   7600 C4         28.6300   62.2900   64.5200 c3       346 PET      0.058627
   7601 O1         19.8800   61.7300   68.0900 os       346 PET     -0.411922
   7602 O2         20.4600   63.9200   67.8800 o        346 PET     -0.591068
   7603 O3         26.3600   59.6800   67.0300 o        346 PET     -0.591068
   7604 O4         26.7400   61.5700   65.9000 os       346 PET     -0.411922
   7605 HA2        22.7200   64.0200   66.4600 ha       346 PET      0.129090
   7606 HA3        24.9000   63.0700   65.7900 ha       346 PET      0.145907
   7607 HA4        21.8600   60.4900   68.8000 ha       346 PET      0.145907
   7608 HA5        24.1600   59.6900   68.4900 ha       346 PET      0.129090
   7609 H31        28.7600   61.1300   66.2500 h1       346 PET      0.097188
   7610 H32        28.0500   60.2300   64.8700 h1       346 PET      0.097188
   7611 H41        27.7100   62.7900   64.2000 h1       346 PET      0.097188
   7612 H42        29.1600   61.8500   63.6600 h1       346 PET      0.097188
   7613 C1         30.8100   62.8400   65.2800 c        347 PET      0.825469
   7614 CA1        31.8200   64.0000   65.2800 ca       347 PET     -0.163574
   7615 CA2        31.4900   65.3400   65.5200 ca       347 PET     -0.108363
   7616 CA3        32.5100   66.3500   65.3300 ca       347 PET     -0.078542
   7617 CA4        33.1500   63.6700   65.1700 ca       347 PET     -0.078542
   7618 CA5        34.1100   64.6000   65.1300 ca       347 PET     -0.108363
   7619 CA6        33.8300   65.9900   65.1300 ca       347 PET     -0.163574
   7620 C2         34.9700   66.9900   64.9800 c        347 PET      0.825469
   7621 C3         37.4100   67.1500   64.9200 c3       347 PET      0.058627
   7622 C4         38.3500   67.2500   66.1100 c3       347 PET      0.058627
   7623 O1         29.4900   63.1700   65.2300 os       347 PET     -0.411922
   7624 O2         31.1500   61.6800   65.0800 o        347 PET     -0.591068
   7625 O3         34.7600   68.2000   64.8000 o        347 PET     -0.591068
   7626 O4         36.2100   66.3800   65.1600 os       347 PET     -0.411922
   7627 HA2        30.4600   65.5400   65.8100 ha       347 PET      0.129090
   7628 HA3        32.3400   67.4100   65.5200 ha       347 PET      0.145907
   7629 HA4        33.4600   62.6300   65.2000 ha       347 PET      0.145907
   7630 HA5        35.1400   64.2400   65.0900 ha       347 PET      0.129090
   7631 H31        37.9500   66.6400   64.1100 h1       347 PET      0.097188
   7632 H32        37.2400   68.2000   64.7000 h1       347 PET      0.097188
   7633 H41        38.5700   66.2800   66.5700 h1       347 PET      0.097188
   7634 H42        37.9100   67.9600   66.8300 h1       347 PET      0.097188
   7635 C1         39.7400   69.0600   65.1500 c        348 PET      0.825469
   7636 CA1        41.0700   69.4700   64.8200 ca       348 PET     -0.163574
   7637 CA2        42.2600   68.7800   65.3000 ca       348 PET     -0.108363
   7638 CA3        43.5700   69.2600   64.9800 ca       348 PET     -0.078542
   7639 CA4        41.3000   70.6000   63.9800 ca       348 PET     -0.078542
   7640 CA5        42.6100   71.0200   63.7400 ca       348 PET     -0.108363
   7641 CA6        43.7800   70.4200   64.2900 ca       348 PET     -0.163574
   7642 C2         45.1100   71.0400   64.0300 c        348 PET      0.825469
   7643 C3         47.4100   71.0600   64.6400 c3       348 PET      0.058627
   7644 C4         48.4800   70.1500   65.3400 c3       348 PET      0.058627
   7645 O1         39.5900   67.7800   65.6800 os       348 PET     -0.411922
   7646 O2         38.7600   69.7700   65.0800 o        348 PET     -0.591068
   7647 O3         45.2700   71.8600   63.1300 o        348 PET     -0.591068
   7648 O4         46.1500   70.5400   64.7900 os       348 PET     -0.411922
   7649 HA2        42.2000   67.9100   65.9500 ha       348 PET      0.129090
   7650 HA3        44.3700   68.6500   65.3800 ha       348 PET      0.145907
   7651 HA4        40.4100   71.1700   63.7300 ha       348 PET      0.145907
   7652 HA5        42.6800   71.9300   63.1400 ha       348 PET      0.129090
   7653 H31        47.6900   71.3000   63.6000 h1       348 PET      0.097188
   7654 H32        47.4800   72.0400   65.1200 h1       348 PET      0.097188
   7655 H41        48.4300   69.0800   65.0700 h1       348 PET      0.097188
   7656 H42        48.3400   70.1700   66.4300 h1       348 PET      0.097188
   7657 C1         50.9000   69.8800   65.4800 c        349 PET      0.825469
   7658 CA1        52.2900   70.4300   65.2000 ca       349 PET     -0.163574
   7659 CA2        52.4200   71.1900   64.0200 ca       349 PET     -0.108363
   7660 CA3        53.7000   71.6700   63.7800 ca       349 PET     -0.078542
   7661 CA4        53.3500   70.0200   65.9700 ca       349 PET     -0.078542
   7662 CA5        54.6200   70.4300   65.6600 ca       349 PET     -0.108363
   7663 CA6        54.7900   71.3900   64.6200 ca       349 PET     -0.163574
   7664 C2         56.1300   72.1400   64.4300 c        349 PET      0.825469
   7665 C3         58.4400   72.2300   65.0800 c3       349 PET      0.058627
   7666 C4         59.3200   72.3900   66.4100 c3       349 PET      0.058627
   7667 O1         49.8100   70.6300   65.0100 os       349 PET     -0.411922
   7668 O2         50.7400   68.8100   66.0900 o        349 PET     -0.591068
   7669 O3         56.3400   72.7600   63.3800 o        349 PET     -0.591068
   7670 O4         57.0700   71.9400   65.4000 os       349 PET     -0.411922
   7671 HA2        51.5800   71.5300   63.4300 ha       349 PET      0.129090
   7672 HA3        53.9400   72.2700   62.9000 ha       349 PET      0.145907
   7673 HA4        53.2700   69.2200   66.7100 ha       349 PET      0.145907
   7674 HA5        55.5100   69.9800   66.1100 ha       349 PET      0.129090
   7675 H31        58.8800   71.4600   64.4300 h1       349 PET      0.097188
   7676 H32        58.5000   73.1800   64.5300 h1       349 PET      0.097188
   7677 H41        58.8000   71.7800   67.1600 h1       349 PET      0.097188
   7678 H42        59.4600   73.4600   66.6100 h1       349 PET      0.097188
   7679 C1         60.7600   70.5700   65.9800 c        350 PET      0.825469
   7680 CA1        62.1600   70.1800   65.9800 ca       350 PET     -0.163574
   7681 CA2        63.3100   71.0300   66.1600 ca       350 PET     -0.108363
   7682 CA3        64.5800   70.5400   66.0700 ca       350 PET     -0.078542
   7683 CA4        62.3900   68.8100   65.7700 ca       350 PET     -0.078542
   7684 CA5        63.6400   68.2900   65.7300 ca       350 PET     -0.108363
   7685 CA6        64.7300   69.1400   65.8200 ca       350 PET     -0.163574
   7686 C2         66.1000   68.5300   65.6700 c        350 PET      0.825469
   7687 C3         67.5800   68.0100   63.7700 c3       350 PET      0.058627
   7688 C4         68.3800   66.8800   64.3900 c3       350 PET      0.058627
   7689 O1         60.7100   71.9000   66.1600 os       350 PET     -0.411922
   7690 O2         59.8100   69.8200   65.8000 o        350 PET     -0.591068
   7691 O3         66.9900   68.6600   66.5100 o        350 PET     -0.591068
   7692 O4         66.2700   68.0800   64.3700 os       350 PET     -0.411922
   7693 HA2        63.1200   72.0900   66.3100 ha       350 PET      0.129090
   7694 HA3        65.3900   71.2600   66.2100 ha       350 PET      0.145907
   7695 HA4        61.5600   68.1200   65.6200 ha       350 PET      0.145907
   7696 HA5        63.7800   67.2400   65.4900 ha       350 PET      0.129090
   7697 H31        67.3800   67.8400   62.7000 h1       350 PET      0.097188
   7698 H32        68.1800   68.9300   63.7900 h1       350 PET      0.097188
   7699 H41        67.9400   65.8800   64.2600 h1       350 PET      0.097188
   7700 H42        68.4200   66.9800   65.4800 h1       350 PET      0.097188
   7701 C1         70.6500   66.0600   64.6200 c        351 PET      0.825469
   7702 CA1        72.1300   66.1600   64.0900 ca       351 PET     -0.163574
   7703 CA2        72.4900   66.7200   62.8400 ca       351 PET     -0.108363
   7704 CA3        73.8000   67.0100   62.5200 ca       351 PET     -0.078542
   7705 CA4        73.2300   65.9100   64.9400 ca       351 PET     -0.078542
   7706 CA5        74.5600   66.2300   64.6500 ca       351 PET     -0.108363
   7707 CA6        74.8300   66.8600   63.4600 ca       351 PET     -0.163574
   7708 C2         76.2500   67.3500   63.2400 c        351 PET      0.825469
   7709 C3         78.4800   67.4600   64.0600 c3       351 PET      0.058627
   7710 C4         79.1200   67.5400   65.4500 c3       351 PET      0.058627
   7711 O1         69.7100   66.7700   63.8900 os       351 PET     -0.411922
   7712 O2         70.3600   65.4100   65.5900 o        351 PET     -0.591068
   7713 O3         76.5500   67.8300   62.1600 o        351 PET     -0.591068
   7714 O4         77.1400   67.0900   64.2700 os       351 PET     -0.411922
   7715 HA2        71.7300   67.0100   62.1200 ha       351 PET      0.129090
   7716 HA3        74.0500   67.5200   61.6000 ha       351 PET      0.145907
   7717 HA4        72.9800   65.5100   65.9200 ha       351 PET      0.145907
   7718 HA5        75.3100   65.9000   65.3700 ha       351 PET      0.129090
   7719 H31        78.9600   66.6500   63.4800 h1       351 PET      0.097188
   7720 H32        78.4700   68.4500   63.5900 h1       351 PET      0.097188
   7721 H41        78.8600   66.5800   65.9200 h1       351 PET      0.097188
   7722 H42        78.6700   68.2900   66.1000 h1       351 PET      0.097188
   7723 C1          1.1500   68.9100   64.9100 c        352 PET      0.825469
   7724 CA1         2.5700   68.9600   64.9000 ca       352 PET     -0.163574
   7725 CA2         3.3500   67.7900   64.7000 ca       352 PET     -0.108363
   7726 CA3         4.7500   67.8700   64.7300 ca       352 PET     -0.078542
   7727 CA4         3.2400   70.2200   64.9300 ca       352 PET     -0.078542
   7728 CA5         4.6400   70.2500   65.0100 ca       352 PET     -0.108363
   7729 CA6         5.4300   69.0900   64.9800 ca       352 PET     -0.163574
   7730 C2          6.9900   69.0700   65.2000 c        352 PET      0.825469
   7731 C3          9.0000   70.4900   65.3000 c3       352 PET      0.058627
   7732 C4          9.3600   71.8800   65.3500 c3       352 PET      0.058627
   7733 O1          0.5700   67.6900   65.2800 os       352 PET     -0.411922
   7734 O2          0.4800   69.8500   64.5500 o        352 PET     -0.591068
   7735 O3          7.7000   68.0900   65.2700 o        352 PET     -0.591068
   7736 O4          7.5300   70.3100   65.3900 os       352 PET     -0.411922
   7737 HA2         2.8900   66.8100   64.6400 ha       352 PET      0.129090
   7738 HA3         5.2900   66.9200   64.7100 ha       352 PET      0.145907
   7739 HA4         2.6500   71.1200   65.0800 ha       352 PET      0.145907
   7740 HA5         5.1600   71.1800   65.2000 ha       352 PET      0.129090
   7741 H31         9.4600   70.0100   66.1700 h1       352 PET      0.097188
   7742 H32         9.4900   70.0000   64.4400 h1       352 PET      0.097188
   7743 H41         8.8800   72.3200   66.2400 h1       352 PET      0.097188
   7744 H42         8.9000   72.3300   64.4500 h1       352 PET      0.097188
   7745 C1         11.3400   73.3400   65.1300 c        353 PET      0.825469
   7746 CA1        12.8200   73.5800   65.3600 ca       353 PET     -0.163574
   7747 CA2        13.3600   74.8900   65.1500 ca       353 PET     -0.108363
   7748 CA3        14.7200   75.0900   65.4100 ca       353 PET     -0.078542
   7749 CA4        13.6000   72.4800   65.7800 ca       353 PET     -0.078542
   7750 CA5        14.9700   72.7300   66.0100 ca       353 PET     -0.108363
   7751 CA6        15.5300   74.0000   65.7800 ca       353 PET     -0.163574
   7752 C2         17.0300   74.1900   65.7700 c        353 PET      0.825469
   7753 C3         18.8300   75.8100   65.3200 c3       353 PET      0.058627
   7754 C4         19.4300   76.5000   66.5100 c3       353 PET      0.058627
   7755 O1         10.8100   72.1400   65.3900 os       353 PET     -0.411922
   7756 O2         10.6000   74.2400   64.7500 o        353 PET     -0.591068
   7757 O3         17.7700   73.2200   65.8400 o        353 PET     -0.591068
   7758 O4         17.4200   75.5100   65.4900 os       353 PET     -0.411922
   7759 HA2        12.6800   75.6200   64.7100 ha       353 PET      0.129090
   7760 HA3        15.1000   76.1100   65.3500 ha       353 PET      0.145907
   7761 HA4        13.1600   71.4900   65.8400 ha       353 PET      0.145907
   7762 HA5        15.5300   71.8700   66.3500 ha       353 PET      0.129090
   7763 H31        19.4300   74.9500   64.9900 h1       353 PET      0.097188
   7764 H32        18.8800   76.5700   64.5300 h1       353 PET      0.097188
   7765 H41        19.4100   75.8700   67.4000 h1       353 PET      0.097188
   7766 H42        18.8300   77.3700   66.8100 h1       353 PET      0.097188
   7767 C1         21.7200   75.9300   65.7900 c        354 PET      0.825469
   7768 CA1        22.9200   76.5700   65.1700 ca       354 PET     -0.163574
   7769 CA2        24.0900   75.8400   65.0200 ca       354 PET     -0.108363
   7770 CA3        25.1800   76.4800   64.3800 ca       354 PET     -0.078542
   7771 CA4        22.8200   77.9100   64.7100 ca       354 PET     -0.078542
   7772 CA5        23.9200   78.5800   64.3000 ca       354 PET     -0.108363
   7773 CA6        25.1100   77.9100   64.0700 ca       354 PET     -0.163574
   7774 C2         26.2700   78.6800   63.5100 c        354 PET      0.825469
   7775 C3         28.6900   78.5900   63.0800 c3       354 PET      0.058627
   7776 C4         28.8600   77.8500   61.7200 c3       354 PET      0.058627
   7777 O1         20.7300   76.8700   66.2000 os       354 PET     -0.411922
   7778 O2         21.7000   74.7100   66.0400 o        354 PET     -0.591068
   7779 O3         26.1400   79.7800   62.9900 o        354 PET     -0.591068
   7780 O4         27.4700   77.9900   63.6600 os       354 PET     -0.411922
   7781 HA2        24.1600   74.8000   65.3200 ha       354 PET      0.129090
   7782 HA3        26.1700   76.0400   64.3700 ha       354 PET      0.145907
   7783 HA4        21.8800   78.4500   64.8000 ha       354 PET      0.145907
   7784 HA5        23.8100   79.5700   63.8600 ha       354 PET      0.129090
   7785 H31        28.6200   79.6800   62.9100 h1       354 PET      0.097188
   7786 H32        29.5300   78.3700   63.7400 h1       354 PET      0.097188
   7787 H41        28.1100   78.2100   61.0100 h1       354 PET      0.097188
   7788 H42        28.7000   76.7900   61.9800 h1       354 PET      0.097188
   7789 C1         30.9000   79.0600   60.8000 c        355 PET      0.825469
   7790 CA1        32.3100   78.7100   60.3700 ca       355 PET     -0.163574
   7791 CA2        32.8800   77.4700   60.7500 ca       355 PET     -0.108363
   7792 CA3        34.2400   77.2100   60.5900 ca       355 PET     -0.078542
   7793 CA4        33.1800   79.6800   59.9400 ca       355 PET     -0.078542
   7794 CA5        34.5300   79.3500   59.6600 ca       355 PET     -0.108363
   7795 CA6        35.1100   78.1100   60.0200 ca       355 PET     -0.163574
   7796 C2         36.5400   77.7900   59.8400 c        355 PET      0.825469
   7797 C3         38.6000   78.7500   59.5400 c3       355 PET      0.058627
   7798 C4         39.4500   80.0300   59.7000 c3       355 PET      0.058627
   7799 O1         30.2600   77.9500   61.2600 os       355 PET     -0.411922
   7800 O2         30.4500   80.2000   60.7800 o        355 PET     -0.591068
   7801 O3         36.9700   76.6700   59.6400 o        355 PET     -0.591068
   7802 O4         37.1900   78.9800   59.7700 os       355 PET     -0.411922
   7803 HA2        32.2400   76.8100   61.3200 ha       355 PET      0.129090
   7804 HA3        34.6600   76.3600   61.1300 ha       355 PET      0.145907
   7805 HA4        32.7700   80.6700   59.8000 ha       355 PET      0.145907
   7806 HA5        35.1100   80.2100   59.3400 ha       355 PET      0.129090
   7807 H31        38.8100   78.0500   60.3600 h1       355 PET      0.097188
   7808 H32        38.6900   78.2900   58.5500 h1       355 PET      0.097188
   7809 H41        39.6100   80.4300   60.7100 h1       355 PET      0.097188
   7810 H42        38.9900   80.7900   59.0600 h1       355 PET      0.097188
   7811 C1         40.9900   79.9100   57.7700 c        356 PET      0.825469
   7812 CA1        42.4300   79.6300   57.3300 ca       356 PET     -0.163574
   7813 CA2        42.8800   80.2800   56.1300 ca       356 PET     -0.108363
   7814 CA3        44.2200   80.0400   55.6600 ca       356 PET     -0.078542
   7815 CA4        43.2200   78.7700   58.0300 ca       356 PET     -0.078542
   7816 CA5        44.4400   78.4800   57.4900 ca       356 PET     -0.108363
   7817 CA6        45.0100   79.1600   56.3800 ca       356 PET     -0.163574
   7818 C2         46.5100   79.1100   56.0500 c        356 PET      0.825469
   7819 C3         48.5800   78.0800   56.5700 c3       356 PET      0.058627
   7820 C4         49.2200   76.9900   57.4900 c3       356 PET      0.058627
   7821 O1         40.7900   79.7600   59.0900 os       356 PET     -0.411922
   7822 O2         40.1000   80.3400   56.9900 o        356 PET     -0.591068
   7823 O3         47.0300   79.7700   55.1500 o        356 PET     -0.591068
   7824 O4         47.1800   78.1300   56.7000 os       356 PET     -0.411922
   7825 HA2        42.3100   81.0500   55.6200 ha       356 PET      0.129090
   7826 HA3        44.6600   80.6400   54.8600 ha       356 PET      0.145907
   7827 HA4        42.8700   78.2800   58.9300 ha       356 PET      0.145907
   7828 HA5        45.0500   77.8400   58.1100 ha       356 PET      0.129090
   7829 H31        48.8800   77.7600   55.5600 h1       356 PET      0.097188
   7830 H32        49.0200   79.0400   56.8700 h1       356 PET      0.097188
   7831 H41        48.8300   76.0000   57.2400 h1       356 PET      0.097188
   7832 H42        49.0000   77.2700   58.5300 h1       356 PET      0.097188
   7833 C1         51.3600   78.1100   57.8200 c        357 PET      0.825469
   7834 CA1        52.8700   77.9900   57.6500 ca       357 PET     -0.163574
   7835 CA2        53.7900   78.8000   58.2800 ca       357 PET     -0.108363
   7836 CA3        55.1200   78.6700   58.2000 ca       357 PET     -0.078542
   7837 CA4        53.3800   77.0100   56.7700 ca       357 PET     -0.078542
   7838 CA5        54.7500   76.8800   56.6200 ca       357 PET     -0.108363
   7839 CA6        55.6100   77.7200   57.3300 ca       357 PET     -0.163574
   7840 C2         57.1000   77.7500   56.9500 c        357 PET      0.825469
   7841 C3         59.0700   79.2000   56.9600 c3       357 PET      0.058627
   7842 C4         59.2100   80.5400   57.6500 c3       357 PET      0.058627
   7843 O1         50.6900   77.0600   57.3000 os       357 PET     -0.411922
   7844 O2         50.8000   78.9500   58.5500 o        357 PET     -0.591068
   7845 O3         57.6700   76.7200   56.5400 o        357 PET     -0.591068
   7846 O4         57.6200   78.9500   57.1200 os       357 PET     -0.411922
   7847 HA2        53.4000   79.5900   58.9100 ha       357 PET      0.129090
   7848 HA3        55.7000   79.3700   58.7900 ha       357 PET      0.145907
   7849 HA4        52.7300   76.4400   56.1100 ha       357 PET      0.145907
   7850 HA5        55.1100   76.2000   55.8500 ha       357 PET      0.129090
   7851 H31        59.6900   78.4900   57.5200 h1       357 PET      0.097188
   7852 H32        59.4200   79.2700   55.9200 h1       357 PET      0.097188
   7853 H41        59.0400   80.4800   58.7300 h1       357 PET      0.097188
   7854 H42        58.4600   81.2100   57.2300 h1       357 PET      0.097188
   7855 C1         61.2900    1.6300   58.3100 c        358 PET      0.825469
   7856 CA1        62.5700    2.2700   57.7900 ca       358 PET     -0.163574
   7857 CA2        62.9300    2.2700   56.4700 ca       358 PET     -0.108363
   7858 CA3        64.0300    2.9900   56.0000 ca       358 PET     -0.078542
   7859 CA4        63.5400    2.8100   58.7100 ca       358 PET     -0.078542
   7860 CA5        64.7700    3.3300   58.3000 ca       358 PET     -0.108363
   7861 CA6        65.0100    3.5600   56.9300 ca       358 PET     -0.163574
   7862 C2         66.2400    4.2400   56.3400 c        358 PET      0.825469
   7863 C3         68.1400    5.6900   57.0300 c3       358 PET      0.058627
   7864 C4         69.1900    4.6000   57.2700 c3       358 PET      0.058627
   7865 O1         60.4900    1.0800   57.3300 os       358 PET     -0.411922
   7866 O2         60.9400    1.7500   59.5100 o        358 PET     -0.591068
   7867 O3         66.7500    3.9000   55.2600 o        358 PET     -0.591068
   7868 O4         66.8100    5.1500   57.1900 os       358 PET     -0.411922
   7869 HA2        62.2100    1.9500   55.7300 ha       358 PET      0.129090
   7870 HA3        64.2300    3.0800   54.9300 ha       358 PET      0.145907
   7871 HA4        63.4000    2.5800   59.7600 ha       358 PET      0.145907
   7872 HA5        65.4500    3.7400   59.0400 ha       358 PET      0.129090
   7873 H31        68.1600    6.1500   56.0300 h1       358 PET      0.097188
   7874 H32        68.2500    6.5000   57.7700 h1       358 PET      0.097188
   7875 H41        69.3000    3.8800   56.4400 h1       358 PET      0.097188
   7876 H42        68.9500    4.0900   58.2100 h1       358 PET      0.097188
   7877 C1         71.0900    6.1200   56.6300 c        359 PET      0.825469
   7878 CA1        72.4700    6.2800   56.9700 ca       359 PET     -0.163574
   7879 CA2        73.3900    7.0100   56.1700 ca       359 PET     -0.108363
   7880 CA3        74.6700    7.2300   56.6800 ca       359 PET     -0.078542
   7881 CA4        72.9800    5.8000   58.2300 ca       359 PET     -0.078542
   7882 CA5        74.2700    6.1000   58.7000 ca       359 PET     -0.108363
   7883 CA6        75.1000    6.7400   57.8500 ca       359 PET     -0.163574
   7884 C2         76.5400    6.9600   58.2500 c        359 PET      0.825469
   7885 C3         78.7400    7.6800   57.4100 c3       359 PET      0.058627
   7886 C4         79.6600    6.6600   56.7300 c3       359 PET      0.058627
   7887 O1         70.4000    5.3300   57.5100 os       359 PET     -0.411922
   7888 O2         70.6300    6.4600   55.5700 o        359 PET     -0.591068
   7889 O3         76.9500    6.8100   59.4100 o        359 PET     -0.591068
   7890 O4         77.3600    7.3700   57.2000 os       359 PET     -0.411922
   7891 HA2        73.1200    7.3700   55.1700 ha       359 PET      0.129090
   7892 HA3        75.3900    7.7600   56.0700 ha       359 PET      0.145907
   7893 HA4        72.3600    5.2100   58.8900 ha       359 PET      0.145907
   7894 HA5        74.7000    5.6800   59.6000 ha       359 PET      0.129090
   7895 H31        79.0300    8.6500   57.0000 h1       359 PET      0.097188
   7896 H32        78.9500    7.6500   58.4900 h1       359 PET      0.097188
   7897 H41        79.2500    6.3400   55.7600 h1       359 PET      0.097188
   7898 H42        79.8100    5.7400   57.3200 h1       359 PET      0.097188
   7899 C1          1.7000    7.5900   57.6200 c        360 PET      0.825469
   7900 CA1         3.0300    8.2000   57.2200 ca       360 PET     -0.163574
   7901 CA2         4.1000    8.2400   58.1300 ca       360 PET     -0.108363
   7902 CA3         5.3600    8.8000   57.6900 ca       360 PET     -0.078542
   7903 CA4         3.2900    8.6700   55.9000 ca       360 PET     -0.078542
   7904 CA5         4.5200    9.1500   55.4800 ca       360 PET     -0.108363
   7905 CA6         5.5800    9.2600   56.4000 ca       360 PET     -0.163574
   7906 C2          6.8700    9.9300   56.1000 c        360 PET      0.825469
   7907 C3          8.1700   11.0800   54.4000 c3       360 PET      0.058627
   7908 C4          8.0400   11.6300   53.0000 c3       360 PET      0.058627
   7909 O1          0.9600    7.2800   56.4900 os       360 PET     -0.411922
   7910 O2          1.3700    7.3400   58.7700 o        360 PET     -0.591068
   7911 O3          7.7400   10.0000   56.9200 o        360 PET     -0.591068
   7912 O4          6.9300   10.4200   54.8500 os       360 PET     -0.411922
   7913 HA2         3.9500    7.8500   59.1300 ha       360 PET      0.129090
   7914 HA3         6.1200    8.8100   58.4600 ha       360 PET      0.145907
   7915 HA4         2.4800    8.7000   55.1700 ha       360 PET      0.145907
   7916 HA5         4.6800    9.5100   54.4700 ha       360 PET      0.129090
   7917 H31         8.3800   11.9100   55.1000 h1       360 PET      0.097188
   7918 H32         9.0000   10.3700   54.4800 h1       360 PET      0.097188
   7919 H41         8.9100   12.0200   52.4500 h1       360 PET      0.097188
   7920 H42         7.4000   12.5300   53.0500 h1       360 PET      0.097188
   7921 C1         58.7200   10.2600   53.5800 c        361 PET      0.825469
   7922 CA1        58.7200    9.7200   54.9800 ca       361 PET     -0.163574
   7923 CA2        57.7800   10.1700   55.9100 ca       361 PET     -0.108363
   7924 CA3        57.8800    9.7100   57.2500 ca       361 PET     -0.078542
   7925 CA4        59.7500    8.8600   55.4400 ca       361 PET     -0.078542
   7926 CA5        59.8300    8.4400   56.7900 ca       361 PET     -0.108363
   7927 CA6        58.9000    8.8700   57.7000 ca       361 PET     -0.163574
   7928 C2         58.9600    8.4900   59.1800 c        361 PET      0.825469
   7929 C3         58.2800    8.9200   61.4500 c3       361 PET      0.058627
   7930 C4         57.8300   10.2300   62.1400 c3       361 PET      0.058627
   7931 O1         57.6100   10.9200   53.1100 os       361 PET     -0.411922
   7932 O2         59.6700   10.0200   52.8700 o        361 PET     -0.591068
   7933 O3         59.6300    7.5900   59.5300 o        361 PET     -0.591068
   7934 O4         58.2500    9.2400   60.0000 os       361 PET     -0.411922
   7935 HA2        56.9000   10.7800   55.7100 ha       361 PET      0.129090
   7936 HA3        57.0800    9.9300   57.9600 ha       361 PET      0.145907
   7937 HA4        60.5900    8.7200   54.7600 ha       361 PET      0.145907
   7938 HA5        60.7000    7.8700   57.1200 ha       361 PET      0.129090
   7939 H31        57.5900    8.1000   61.6800 h1       361 PET      0.097188
   7940 H32        59.3200    8.7000   61.7100 h1       361 PET      0.097188
   7941 H41        58.0600   11.1000   61.5100 h1       361 PET      0.097188
   7942 H42        58.4300   10.3000   63.0500 h1       361 PET      0.097188
   7943 C1         55.8100   11.3500   62.5900 c        362 PET      0.825469
   7944 CA1        54.3500   11.3400   62.4900 ca       362 PET     -0.163574
   7945 CA2        53.5900   10.1400   62.3600 ca       362 PET     -0.108363
   7946 CA3        52.2000   10.1900   62.3000 ca       362 PET     -0.078542
   7947 CA4        53.6100   12.4700   62.6800 ca       362 PET     -0.078542
   7948 CA5        52.2100   12.5300   62.6600 ca       362 PET     -0.108363
   7949 CA6        51.4800   11.3900   62.4000 ca       362 PET     -0.163574
   7950 C2         49.9400   11.3800   62.4600 c        362 PET      0.825469
   7951 C3         47.8700   12.6900   62.7600 c3       362 PET      0.058627
   7952 C4         47.6200   12.4700   64.2800 c3       362 PET      0.058627
   7953 O1         56.4300   10.2100   62.2300 os       362 PET     -0.411922
   7954 O2         56.4200   12.3400   62.8500 o        362 PET     -0.591068
   7955 O3         49.3400   10.3400   62.5200 o        362 PET     -0.591068
   7956 O4         49.3000   12.6200   62.4900 os       362 PET     -0.411922
   7957 HA2        54.0500    9.1600   62.3500 ha       362 PET      0.129090
   7958 HA3        51.6300    9.2600   62.2900 ha       362 PET      0.145907
   7959 HA4        54.1600   13.3900   62.8500 ha       362 PET      0.145907
   7960 HA5        51.6500   13.4500   62.8400 ha       362 PET      0.129090
   7961 H31        47.4200   13.6700   62.5500 h1       362 PET      0.097188
   7962 H32        47.4200   11.8500   62.2200 h1       362 PET      0.097188
   7963 H41        46.8100   11.7300   64.2500 h1       362 PET      0.097188
   7964 H42        47.2700   13.4100   64.7200 h1       362 PET      0.097188
   7965 C1         49.7500   12.7000   65.6100 c        363 PET      0.825469
   7966 CA1        51.0600   12.0000   65.7200 ca       363 PET     -0.163574
   7967 CA2        51.1600   10.5800   65.5600 ca       363 PET     -0.108363
   7968 CA3        52.4600    9.9800   65.5700 ca       363 PET     -0.078542
   7969 CA4        52.2500   12.7700   65.8300 ca       363 PET     -0.078542
   7970 CA5        53.4400   12.1700   66.0100 ca       363 PET     -0.108363
   7971 CA6        53.5800   10.8100   65.8000 ca       363 PET     -0.163574
   7972 C2         54.9400   10.1100   65.6700 c        363 PET      0.825469
   7973 C3         57.2800   10.3200   66.0100 c3       363 PET      0.058627
   7974 C4         58.1700   11.2800   66.8700 c3       363 PET      0.058627
   7975 O1         48.7600   11.9400   65.0700 os       363 PET     -0.411922
   7976 O2         49.6100   13.9000   65.8100 o        363 PET     -0.591068
   7977 O3         55.0800    8.9800   65.2000 o        363 PET     -0.591068
   7978 O4         55.9400   10.8400   66.2100 os       363 PET     -0.411922
   7979 HA2        50.2600   10.0000   65.4100 ha       363 PET      0.129090
   7980 HA3        52.5800    8.9200   65.3800 ha       363 PET      0.145907
   7981 HA4        52.2000   13.8500   65.9400 ha       363 PET      0.145907
   7982 HA5        54.3200   12.7400   66.2700 ha       363 PET      0.129090
   7983 H31        57.2900    9.2500   66.2600 h1       363 PET      0.097188
   7984 H32        57.5500   10.4300   64.9600 h1       363 PET      0.097188
   7985 H41        57.7300   11.3300   67.8700 h1       363 PET      0.097188
   7986 H42        58.2300   12.2600   66.3900 h1       363 PET      0.097188
   7987 C1         60.3800   11.0900   67.9600 c        364 PET      0.825469
   7988 CA1        61.6600   10.3000   67.9500 ca       364 PET     -0.163574
   7989 CA2        61.8700    9.2800   66.9900 ca       364 PET     -0.108363
   7990 CA3        63.1000    8.6200   66.9400 ca       364 PET     -0.078542
   7991 CA4        62.6400   10.6700   68.8500 ca       364 PET     -0.078542
   7992 CA5        63.7900    9.9500   68.9000 ca       364 PET     -0.108363
   7993 CA6        64.0600    9.0100   67.8900 ca       364 PET     -0.163574
   7994 C2         65.4000    8.4200   67.8700 c        364 PET      0.825469
   7995 C3         67.7700    8.7800   68.5700 c3       364 PET      0.058627
   7996 C4         68.2200    7.3500   68.8700 c3       364 PET      0.058627
   7997 O1         59.4800   10.6500   67.1100 os       364 PET     -0.411922
   7998 O2         60.2000   12.0600   68.6300 o        364 PET     -0.591068
   7999 O3         65.7100    7.5700   67.0900 o        364 PET     -0.591068
   8000 O4         66.3400    8.9600   68.7400 os       364 PET     -0.411922
   8001 HA2        61.2600    8.9800   66.1400 ha       364 PET      0.129090
   8002 HA3        63.3500    7.8600   66.2100 ha       364 PET      0.145907
   8003 HA4        62.4700   11.4200   69.6200 ha       364 PET      0.145907
   8004 HA5        64.5100   10.2100   69.6600 ha       364 PET      0.129090
   8005 H31        68.0400    8.9500   67.5200 h1       364 PET      0.097188
   8006 H32        68.2900    9.5300   69.1800 h1       364 PET      0.097188
   8007 H41        67.6100    6.6400   68.2900 h1       364 PET      0.097188
   8008 H42        67.9900    7.1800   69.9400 h1       364 PET      0.097188
   8009 C1         70.0800    6.9100   67.2700 c        365 PET      0.825469
   8010 CA1        71.4800    6.3900   67.3400 ca       365 PET     -0.163574
   8011 CA2        72.1800    6.2000   68.5500 ca       365 PET     -0.108363
   8012 CA3        73.5900    5.9700   68.5100 ca       365 PET     -0.078542
   8013 CA4        72.2000    6.1000   66.1600 ca       365 PET     -0.078542
   8014 CA5        73.5500    5.7000   66.1500 ca       365 PET     -0.108363
   8015 CA6        74.2900    5.6000   67.3400 ca       365 PET     -0.163574
   8016 C2         75.6900    5.2500   67.3100 c        365 PET      0.825469
   8017 C3         77.6200    4.4800   68.5300 c3       365 PET      0.058627
   8018 C4         77.4300    2.9300   68.6500 c3       365 PET      0.058627
   8019 O1         69.5500    7.0600   68.5200 os       365 PET     -0.411922
   8020 O2         69.5400    7.2100   66.2300 o        365 PET     -0.591068
   8021 O3         76.2000    4.8900   66.2500 o        365 PET     -0.591068
   8022 O4         76.3400    5.2200   68.5100 os       365 PET     -0.411922
   8023 HA2        71.6700    6.3300   69.5000 ha       365 PET      0.129090
   8024 HA3        73.9900    6.1300   69.5100 ha       365 PET      0.145907
   8025 HA4        71.7800    6.2000   65.1700 ha       365 PET      0.145907
   8026 HA5        74.0400    5.3700   65.2400 ha       365 PET      0.129090
   8027 H31        78.1900    4.7800   67.6400 h1       365 PET      0.097188
   8028 H32        78.2000    4.7800   69.4200 h1       365 PET      0.097188
   8029 H41        76.6900    2.5800   67.9100 h1       365 PET      0.097188
   8030 H42        77.1100    2.7100   69.6800 h1       365 PET      0.097188
   8031 C1         -1.0500   81.1100   68.6700 c        366 PET      0.825469
   8032 CA1         0.3700   80.7200   68.5800 ca       366 PET     -0.163574
   8033 CA2         1.3500   81.6900   68.8700 ca       366 PET     -0.108363
   8034 CA3         2.7200   81.3600   68.7700 ca       366 PET     -0.078542
   8035 CA4         0.7400   79.4300   68.2400 ca       366 PET     -0.078542
   8036 CA5         2.0900   79.1200   68.1200 ca       366 PET     -0.108363
   8037 CA6         3.0900   80.0900   68.3100 ca       366 PET     -0.163574
   8038 C2          4.5500   79.7600   68.2000 c        366 PET      0.825469
   8039 C3          6.7300   80.8900   68.4500 c3       366 PET      0.058627
   8040 C4          7.1500   82.3400   68.2200 c3       366 PET      0.058627
   8041 O1         -1.2900   82.4100   68.3800 os       366 PET     -0.411922
   8042 O2         -1.9300   80.3500   69.0400 o        366 PET     -0.591068
   8043 O3          5.0100   78.6800   67.9000 o        366 PET     -0.591068
   8044 O4          5.3300   80.8500   68.4200 os       366 PET     -0.411922
   8045 HA2         1.0600   82.6500   69.2800 ha       366 PET      0.129090
   8046 HA3         3.4200   82.1100   69.1200 ha       366 PET      0.145907
   8047 HA4         0.1100   78.5900   67.9300 ha       366 PET      0.145907
   8048 HA5         2.4200   78.1200   67.8600 ha       366 PET      0.129090
   8049 H31         7.0800   80.5600   69.4400 h1       366 PET      0.097188
   8050 H32         7.0700   80.2100   67.6600 h1       366 PET      0.097188
   8051 H41         6.9000   82.9800   69.0700 h1       366 PET      0.097188
   8052 H42         6.6700   82.7700   67.3300 h1       366 PET      0.097188
   8053 C1          9.2800    3.3600   68.5100 c        367 PET      0.825469
   8054 CA1        10.7800    3.1300   68.2300 ca       367 PET     -0.163574
   8055 CA2        11.1400    2.1100   67.3300 ca       367 PET     -0.108363
   8056 CA3        12.5100    1.8400   67.0800 ca       367 PET     -0.078542
   8057 CA4        11.7700    3.8800   68.8900 ca       367 PET     -0.078542
   8058 CA5        13.1200    3.6600   68.5400 ca       367 PET     -0.108363
   8059 CA6        13.5200    2.6700   67.6400 ca       367 PET     -0.163574
   8060 C2         14.9700    2.3000   67.4400 c        367 PET      0.825469
   8061 C3         17.2400    2.8800   67.9100 c3       367 PET      0.058627
   8062 C4         17.9800    3.9400   68.7100 c3       367 PET      0.058627
   8063 O1          8.4600    2.4300   67.8600 os       367 PET     -0.411922
   8064 O2          8.9100    4.2600   69.2200 o        367 PET     -0.591068
   8065 O3         15.3500    1.4700   66.6000 o        367 PET     -0.591068
   8066 O4         15.8500    3.0600   68.2100 os       367 PET     -0.411922
   8067 HA2        10.3900    1.4900   66.8500 ha       367 PET      0.129090
   8068 HA3        12.9000    1.1200   66.3700 ha       367 PET      0.145907
   8069 HA4        11.5200    4.6400   69.6200 ha       367 PET      0.145907
   8070 HA5        13.7700    4.2500   69.1800 ha       367 PET      0.129090
   8071 H31        17.6000    1.9200   68.2900 h1       367 PET      0.097188
   8072 H32        17.4300    3.1900   66.8700 h1       367 PET      0.097188
   8073 H41        17.6600    3.9900   69.7600 h1       367 PET      0.097188
   8074 H42        17.7200    4.9200   68.2800 h1       367 PET      0.097188
   8075 C1         19.9900    4.3900   67.4200 c        368 PET      0.825469
   8076 CA1        21.5500    4.1800   67.4200 ca       368 PET     -0.163574
   8077 CA2        22.3600    4.6000   66.3800 ca       368 PET     -0.108363
   8078 CA3        23.7700    4.4800   66.4400 ca       368 PET     -0.078542
   8079 CA4        22.2200    3.4900   68.4300 ca       368 PET     -0.078542
   8080 CA5        23.5900    3.3700   68.5700 ca       368 PET     -0.108363
   8081 CA6        24.3900    3.8900   67.5500 ca       368 PET     -0.163574
   8082 C2         25.8900    3.7400   67.6600 c        368 PET      0.825469
   8083 C3         27.6800    2.4100   68.7400 c3       368 PET      0.058627
   8084 C4         28.2900    2.1000   67.3400 c3       368 PET      0.058627
   8085 O1         19.3900    3.7400   68.5400 os       368 PET     -0.411922
   8086 O2         19.3900    5.0300   66.5800 o        368 PET     -0.591068
   8087 O3         26.6400    4.5800   67.1300 o        368 PET     -0.591068
   8088 O4         26.3000    2.7500   68.4800 os       368 PET     -0.411922
   8089 HA2        21.8300    4.9300   65.4900 ha       368 PET      0.129090
   8090 HA3        24.4300    4.7800   65.6300 ha       368 PET      0.145907
   8091 HA4        21.5800    2.9900   69.1500 ha       368 PET      0.145907
   8092 HA5        24.0000    2.9300   69.4700 ha       368 PET      0.129090
   8093 H31        28.2300    3.2500   69.1800 h1       368 PET      0.097188
   8094 H32        27.7400    1.5200   69.3800 h1       368 PET      0.097188
   8095 H41        28.4800    3.0600   66.8500 h1       368 PET      0.097188
   8096 H42        27.4900    1.5900   66.7900 h1       368 PET      0.097188
   8097 C1         30.5300   81.6900   68.2400 c        369 PET      0.825469
   8098 CA1        31.8800   80.9900   67.8900 ca       369 PET     -0.163574
   8099 CA2        32.0400   79.9700   66.8900 ca       369 PET     -0.108363
   8100 CA3        33.3100   79.3700   66.7000 ca       369 PET     -0.078542
   8101 CA4        32.9800   81.3600   68.7100 ca       369 PET     -0.078542
   8102 CA5        34.2300   80.7300   68.5100 ca       369 PET     -0.108363
   8103 CA6        34.3800   79.7000   67.5200 ca       369 PET     -0.163574
   8104 C2         35.7500   78.9800   67.3700 c        369 PET      0.825469
   8105 C3         37.4000   78.8600   65.6100 c3       369 PET      0.058627
   8106 C4         37.8900   80.3600   65.9000 c3       369 PET      0.058627
   8107 O1         29.4200   81.2600   67.4500 os       369 PET     -0.411922
   8108 O2         30.4700   82.6500   68.9500 o        369 PET     -0.591068
   8109 O3         36.5100   78.6300   68.2400 o        369 PET     -0.591068
   8110 O4         36.0600   78.8400   66.1100 os       369 PET     -0.411922
   8111 HA2        31.1800   79.5400   66.3800 ha       369 PET      0.129090
   8112 HA3        33.4300   78.4800   66.0900 ha       369 PET      0.145907
   8113 HA4        32.9400   82.0600   69.5400 ha       369 PET      0.145907
   8114 HA5        35.0400   81.0300   69.1600 ha       369 PET      0.129090
   8115 H31        38.0900   78.1300   66.0600 h1       369 PET      0.097188
   8116 H32        37.4100   78.7200   64.5200 h1       369 PET      0.097188
   8117 H41        37.9500   80.4800   66.9900 h1       369 PET      0.097188
   8118 H42        37.2000   81.1000   65.4800 h1       369 PET      0.097188
   8119 C1         40.0400   81.3900   65.3200 c        370 PET      0.825469
   8120 CA1        41.3600   80.9800   64.7800 ca       370 PET     -0.163574
   8121 CA2        42.2400   81.8700   64.1400 ca       370 PET     -0.108363
   8122 CA3        43.5000   81.4700   63.6000 ca       370 PET     -0.078542
   8123 CA4        41.8900   79.6900   65.1600 ca       370 PET     -0.078542
   8124 CA5        43.2400   79.3500   64.8200 ca       370 PET     -0.108363
   8125 CA6        43.9600   80.1900   63.9700 ca       370 PET     -0.163574
   8126 C2         45.4200   79.9100   63.7700 c        370 PET      0.825469
   8127 C3         47.1400   78.2200   63.7600 c3       370 PET      0.058627
   8128 C4         47.2900   76.7700   64.2600 c3       370 PET      0.058627
   8129 O1         39.2100   80.3600   65.3500 os       370 PET     -0.411922
   8130 O2         39.7900   82.5100   65.6400 o        370 PET     -0.591068
   8131 O3         46.2600   80.7000   63.3800 o        370 PET     -0.591068
   8132 O4         45.8200   78.6100   64.1400 os       370 PET     -0.411922
   8133 HA2        41.7300   82.7900   63.8600 ha       370 PET      0.129090
   8134 HA3        44.1900   82.1400   63.1100 ha       370 PET      0.145907
   8135 HA4        41.3600   78.9800   65.7900 ha       370 PET      0.145907
   8136 HA5        43.6700   78.4200   65.1700 ha       370 PET      0.129090
   8137 H31        47.3600   78.2700   62.6900 h1       370 PET      0.097188
   8138 H32        47.8400   78.8900   64.2700 h1       370 PET      0.097188
   8139 H41        46.5400   76.0800   63.8500 h1       370 PET      0.097188
   8140 H42        47.2300   76.8200   65.3500 h1       370 PET      0.097188
   8141 C1         49.0400   75.2800   64.3800 c        371 PET      0.825469
   8142 CA1        50.5900   75.3200   64.5400 ca       371 PET     -0.163574
   8143 CA2        51.2800   74.2200   65.0900 ca       371 PET     -0.108363
   8144 CA3        52.6200   74.2500   65.4300 ca       371 PET     -0.078542
   8145 CA4        51.3500   76.4000   64.2600 ca       371 PET     -0.078542
   8146 CA5        52.7500   76.5400   64.4900 ca       371 PET     -0.108363
   8147 CA6        53.4300   75.4300   65.1600 ca       371 PET     -0.163574
   8148 C2         54.8600   75.4500   65.5700 c        371 PET      0.825469
   8149 C3         56.8500   76.7600   65.8500 c3       371 PET      0.058627
   8150 C4         57.6700   76.1200   64.8100 c3       371 PET      0.058627
   8151 O1         48.6200   76.4800   63.9600 os       371 PET     -0.411922
   8152 O2         48.3500   74.2700   64.4000 o        371 PET     -0.591068
   8153 O3         55.3400   74.3800   65.9900 o        371 PET     -0.591068
   8154 O4         55.4700   76.6300   65.4900 os       371 PET     -0.411922
   8155 HA2        50.7300   73.3400   65.3800 ha       371 PET      0.129090
   8156 HA3        53.0900   73.4300   65.9600 ha       371 PET      0.145907
   8157 HA4        50.9800   77.1600   63.5800 ha       371 PET      0.145907
   8158 HA5        53.3100   77.4100   64.1600 ha       371 PET      0.129090
   8159 H31        57.2400   77.7800   65.8700 h1       371 PET      0.097188
   8160 H32        56.9100   76.2800   66.8400 h1       371 PET      0.097188
   8161 H41        57.5900   76.6600   63.8600 h1       371 PET      0.097188
   8162 H42        57.1500   75.2200   64.4600 h1       371 PET      0.097188
   8163 C1         59.8600   77.0700   65.3400 c        372 PET      0.825469
   8164 CA1        61.3900   76.8300   65.4700 ca       372 PET     -0.163574
   8165 CA2        62.0300   75.5600   65.5400 ca       372 PET     -0.108363
   8166 CA3        63.4700   75.4800   65.6000 ca       372 PET     -0.078542
   8167 CA4        62.2100   77.9600   65.4100 ca       372 PET     -0.078542
   8168 CA5        63.5700   77.8700   65.5400 ca       372 PET     -0.108363
   8169 CA6        64.2100   76.6200   65.6600 ca       372 PET     -0.163574
   8170 C2         65.7500   76.5900   65.7600 c        372 PET      0.825469
   8171 C3         67.5600   75.0700   65.8100 c3       372 PET      0.058627
   8172 C4         67.5300   73.6300   65.5200 c3       372 PET      0.058627
   8173 O1         59.1100   75.9900   65.1400 os       372 PET     -0.411922
   8174 O2         59.3600   78.2000   65.2900 o        372 PET     -0.591068
   8175 O3         66.4700   77.5400   65.7100 o        372 PET     -0.591068
   8176 O4         66.1700   75.3500   65.9300 os       372 PET     -0.411922
   8177 HA2        61.4400   74.6700   65.3100 ha       372 PET      0.129090
   8178 HA3        63.9400   74.5100   65.5200 ha       372 PET      0.145907
   8179 HA4        61.7800   78.9600   65.3400 ha       372 PET      0.145907
   8180 HA5        64.1600   78.7700   65.4200 ha       372 PET      0.129090
   8181 H31        68.0200   75.6300   64.9800 h1       372 PET      0.097188
   8182 H32        68.1500   75.3600   66.6900 h1       372 PET      0.097188
   8183 H41        67.0500   73.5600   64.5300 h1       372 PET      0.097188
   8184 H42        66.9200   73.0000   66.1800 h1       372 PET      0.097188
   8185 C1         69.0900   71.8300   65.1700 c        373 PET      0.825469
   8186 CA1        70.5100   71.3900   65.2700 ca       373 PET     -0.163574
   8187 CA2        71.4900   72.4000   65.7200 ca       373 PET     -0.108363
   8188 CA3        72.8200   72.0700   65.8800 ca       373 PET     -0.078542
   8189 CA4        71.0100   70.1000   65.0800 ca       373 PET     -0.078542
   8190 CA5        72.3700   69.8400   65.2000 ca       373 PET     -0.108363
   8191 CA6        73.2700   70.7700   65.6600 ca       373 PET     -0.163574
   8192 C2         74.6900   70.4100   65.8500 c        373 PET      0.825469
   8193 C3         76.9200   71.1500   66.2500 c3       373 PET      0.058627
   8194 C4         77.3300   70.4300   67.5900 c3       373 PET      0.058627
   8195 O1         68.9000   73.1300   65.5300 os       373 PET     -0.411922
   8196 O2         68.1800   71.0800   64.8500 o        373 PET     -0.591068
   8197 O3         75.1100   69.2400   65.8400 o        373 PET     -0.591068
   8198 O4         75.5000   71.3400   66.2400 os       373 PET     -0.411922
   8199 HA2        71.1900   73.4100   65.9600 ha       373 PET      0.129090
   8200 HA3        73.4800   72.8200   66.3000 ha       373 PET      0.145907
   8201 HA4        70.3500   69.3500   64.6500 ha       373 PET      0.145907
   8202 HA5        72.6700   68.8100   65.0100 ha       373 PET      0.129090
   8203 H31        77.3900   70.6400   65.3900 h1       373 PET      0.097188
   8204 H32        77.3500   72.1600   66.2400 h1       373 PET      0.097188
   8205 H41        76.9200   69.4100   67.6500 h1       373 PET      0.097188
   8206 H42        76.9700   70.9900   68.4600 h1       373 PET      0.097188
   8207 C1         -0.7900   69.3100   68.4900 c        374 PET      0.825469
   8208 CA1         0.7200   69.2600   68.5300 ca       374 PET     -0.163574
   8209 CA2         1.3500   68.0300   68.5200 ca       374 PET     -0.108363
   8210 CA3         2.7400   67.9400   68.3100 ca       374 PET     -0.078542
   8211 CA4         1.5300   70.3900   68.3900 ca       374 PET     -0.078542
   8212 CA5         2.9200   70.3100   68.3000 ca       374 PET     -0.108363
   8213 CA6         3.5600   69.0500   68.2900 ca       374 PET     -0.163574
   8214 C2          5.0300   68.8600   68.2300 c        374 PET      0.825469
   8215 C3          7.3000   69.8000   68.7300 c3       374 PET      0.058627
   8216 C4          7.9200   71.2100   68.7700 c3       374 PET      0.058627
   8217 O1         -1.2600   70.3100   67.6400 os       374 PET     -0.411922
   8218 O2         -1.5200   68.5400   69.1300 o        374 PET     -0.591068
   8219 O3          5.5400   67.8500   67.8400 o        374 PET     -0.591068
   8220 O4          5.8400   69.9600   68.7100 os       374 PET     -0.411922
   8221 HA2         0.8000   67.1000   68.6900 ha       374 PET      0.129090
   8222 HA3         3.2400   66.9800   68.2900 ha       374 PET      0.145907
   8223 HA4         1.0200   71.3500   68.3500 ha       374 PET      0.145907
   8224 HA5         3.5200   71.2100   68.3900 ha       374 PET      0.129090
   8225 H31         7.5400   69.2300   69.6400 h1       374 PET      0.097188
   8226 H32         7.5300   69.2300   67.8200 h1       374 PET      0.097188
   8227 H41         7.6200   71.8300   69.6200 h1       374 PET      0.097188
   8228 H42         7.5200   71.6800   67.8700 h1       374 PET      0.097188
   8229 C1         10.1400   72.1400   68.6600 c        375 PET      0.825469
   8230 CA1        11.6000   71.7400   68.7200 ca       375 PET     -0.163574
   8231 CA2        12.5200   72.6900   69.1200 ca       375 PET     -0.108363
   8232 CA3        13.8400   72.3900   69.1000 ca       375 PET     -0.078542
   8233 CA4        12.0500   70.4600   68.4300 ca       375 PET     -0.078542
   8234 CA5        13.4400   70.0800   68.3600 ca       375 PET     -0.108363
   8235 CA6        14.3400   71.0800   68.7500 ca       375 PET     -0.163574
   8236 C2         15.7300   70.7100   68.7600 c        375 PET      0.825469
   8237 C3         17.9900   71.6100   68.7600 c3       375 PET      0.058627
   8238 C4         18.6000   72.9600   68.9600 c3       375 PET      0.058627
   8239 O1          9.3300   71.0300   68.6300 os       375 PET     -0.411922
   8240 O2          9.8200   73.3100   68.6900 o        375 PET     -0.591068
   8241 O3         16.1400   69.5600   68.6200 o        375 PET     -0.591068
   8242 O4         16.6000   71.7600   68.8800 os       375 PET     -0.411922
   8243 HA2        12.1700   73.6700   69.4200 ha       375 PET      0.129090
   8244 HA3        14.4700   73.2000   69.4700 ha       375 PET      0.145907
   8245 HA4        11.4800   69.5900   68.1200 ha       375 PET      0.145907
   8246 HA5        13.6200   69.0600   68.0200 ha       375 PET      0.129090
   8247 H31        18.4200   70.9000   69.4700 h1       375 PET      0.097188
   8248 H32        18.2600   71.1400   67.8000 h1       375 PET      0.097188
   8249 H41        18.3500   73.3100   69.9800 h1       375 PET      0.097188
   8250 H42        18.1500   73.6100   68.2000 h1       375 PET      0.097188
   8251 C1         20.8500   73.9400   68.9100 c        376 PET      0.825469
   8252 CA1        22.3400   73.6900   68.6900 ca       376 PET     -0.163574
   8253 CA2        23.2700   74.7600   69.0000 ca       376 PET     -0.108363
   8254 CA3        24.6200   74.6200   68.6400 ca       376 PET     -0.078542
   8255 CA4        22.8300   72.5000   68.1700 ca       376 PET     -0.078542
   8256 CA5        24.1700   72.3200   67.8300 ca       376 PET     -0.108363
   8257 CA6        25.0900   73.4300   68.0600 ca       376 PET     -0.163574
   8258 C2         26.5700   73.2400   67.8000 c        376 PET      0.825469
   8259 C3         28.0600   72.0100   66.3400 c3       376 PET      0.058627
   8260 C4         28.2600   73.0900   65.2900 c3       376 PET      0.058627
   8261 O1         20.0500   72.8200   68.7600 os       376 PET     -0.411922
   8262 O2         20.4800   74.9800   69.4000 o        376 PET     -0.591068
   8263 O3         27.4500   74.0100   68.1500 o        376 PET     -0.591068
   8264 O4         26.8100   72.1900   66.9700 os       376 PET     -0.411922
   8265 HA2        22.8500   75.7100   69.2800 ha       376 PET      0.129090
   8266 HA3        25.2900   75.4700   68.7400 ha       376 PET      0.145907
   8267 HA4        22.2000   71.6200   68.0500 ha       376 PET      0.145907
   8268 HA5        24.4600   71.3600   67.4000 ha       376 PET      0.129090
   8269 H31        28.8700   71.9700   67.0800 h1       376 PET      0.097188
   8270 H32        28.0900   71.0100   65.8700 h1       376 PET      0.097188
   8271 H41        27.6400   73.9500   65.5500 h1       376 PET      0.097188
   8272 H42        28.0200   72.7200   64.2900 h1       376 PET      0.097188
   8273 C1         30.0100   74.5400   64.5000 c        377 PET      0.825469
   8274 CA1        31.4600   74.8500   64.4800 ca       377 PET     -0.163574
   8275 CA2        31.8500   76.1300   64.1900 ca       377 PET     -0.108363
   8276 CA3        33.2100   76.4200   64.1800 ca       377 PET     -0.078542
   8277 CA4        32.3700   73.8700   64.9600 ca       377 PET     -0.078542
   8278 CA5        33.7700   74.2000   64.8700 ca       377 PET     -0.108363
   8279 CA6        34.2000   75.4600   64.3900 ca       377 PET     -0.163574
   8280 C2         35.6100   75.8200   64.2200 c        377 PET      0.825469
   8281 C3         37.9600   75.1900   64.5700 c3       377 PET      0.058627
   8282 C4         38.4200   74.7900   63.1300 c3       377 PET      0.058627
   8283 O1         29.6900   73.4000   65.2100 os       377 PET     -0.411922
   8284 O2         29.1500   75.2300   64.0200 o        377 PET     -0.591068
   8285 O3         36.0000   76.8600   63.5900 o        377 PET     -0.591068
   8286 O4         36.5000   74.9300   64.7600 os       377 PET     -0.411922
   8287 HA2        31.1500   76.9300   63.9600 ha       377 PET      0.129090
   8288 HA3        33.6300   77.3900   63.9400 ha       377 PET      0.145907
   8289 HA4        32.0200   72.9300   65.3800 ha       377 PET      0.145907
   8290 HA5        34.5700   73.5100   65.1200 ha       377 PET      0.129090
   8291 H31        38.1300   76.2700   64.6000 h1       377 PET      0.097188
   8292 H32        38.5300   74.6000   65.3000 h1       377 PET      0.097188
   8293 H41        37.9100   75.4100   62.3800 h1       377 PET      0.097188
   8294 H42        38.2700   73.7100   63.0500 h1       377 PET      0.097188
   8295 C1         40.2900   76.3500   62.9300 c        378 PET      0.825469
   8296 CA1        41.7500   76.3700   62.6400 ca       378 PET     -0.163574
   8297 CA2        42.2700   77.5800   62.1800 ca       378 PET     -0.108363
   8298 CA3        43.5800   77.5300   61.6300 ca       378 PET     -0.078542
   8299 CA4        42.5200   75.1900   62.6800 ca       378 PET     -0.078542
   8300 CA5        43.8300   75.1600   62.1300 ca       378 PET     -0.108363
   8301 CA6        44.3800   76.3500   61.5400 ca       378 PET     -0.163574
   8302 C2         45.7200   76.3800   60.9600 c        378 PET      0.825469
   8303 C3         47.8000   75.1700   60.9200 c3       378 PET      0.058627
   8304 C4         48.2100   73.7300   61.0800 c3       378 PET      0.058627
   8305 O1         39.8400   75.0200   63.0800 os       378 PET     -0.411922
   8306 O2         39.5700   77.3600   62.8600 o        378 PET     -0.591068
   8307 O3         46.2200   77.4000   60.5500 o        378 PET     -0.591068
   8308 O4         46.3900   75.1700   61.1200 os       378 PET     -0.411922
   8309 HA2        41.6800   78.4900   62.1800 ha       378 PET      0.129090
   8310 HA3        43.9000   78.4900   61.2200 ha       378 PET      0.145907
   8311 HA4        42.1500   74.2900   63.1600 ha       378 PET      0.145907
   8312 HA5        44.3400   74.2000   62.1700 ha       378 PET      0.129090
   8313 H31        48.0500   75.5200   59.9100 h1       378 PET      0.097188
   8314 H32        48.3700   75.8100   61.6100 h1       378 PET      0.097188
   8315 H41        47.9400   73.0800   60.2300 h1       378 PET      0.097188
   8316 H42        47.7600   73.3000   61.9800 h1       378 PET      0.097188
   8317 C1         50.4600   74.0000   60.0200 c        379 PET      0.825469
   8318 CA1        51.9400   74.1800   60.1900 ca       379 PET     -0.163574
   8319 CA2        52.5000   74.2900   61.4900 ca       379 PET     -0.108363
   8320 CA3        53.8800   74.4700   61.6100 ca       379 PET     -0.078542
   8321 CA4        52.7400   74.3300   59.0400 ca       379 PET     -0.078542
   8322 CA5        54.1300   74.6500   59.1200 ca       379 PET     -0.108363
   8323 CA6        54.6600   74.7400   60.4500 ca       379 PET     -0.163574
   8324 C2         56.1500   75.0700   60.6700 c        379 PET      0.825469
   8325 C3         58.4200   75.1100   59.4900 c3       379 PET      0.058627
   8326 C4         59.1600   73.9100   60.0100 c3       379 PET      0.058627
   8327 O1         49.6800   73.7500   61.1900 os       379 PET     -0.411922
   8328 O2         49.8900   74.2100   59.0000 o        379 PET     -0.591068
   8329 O3         56.6000   75.3800   61.7300 o        379 PET     -0.591068
   8330 O4         56.9700   74.8400   59.5900 os       379 PET     -0.411922
   8331 HA2        51.9600   74.1200   62.4200 ha       379 PET      0.129090
   8332 HA3        54.2500   74.5600   62.6200 ha       379 PET      0.145907
   8333 HA4        52.3000   74.3700   58.0400 ha       379 PET      0.145907
   8334 HA5        54.8000   74.9000   58.3000 ha       379 PET      0.129090
   8335 H31        58.7400   75.3800   58.4700 h1       379 PET      0.097188
   8336 H32        58.6600   76.0100   60.0700 h1       379 PET      0.097188
   8337 H41        59.0900   73.0000   59.4100 h1       379 PET      0.097188
   8338 H42        58.6900   73.7800   60.9900 h1       379 PET      0.097188
   8339 C1         61.0600   75.0900   61.1500 c        380 PET      0.825469
   8340 CA1        62.5200   75.4400   61.0100 ca       380 PET     -0.163574
   8341 CA2        63.2000   76.0200   62.1100 ca       380 PET     -0.108363
   8342 CA3        64.6000   76.1400   62.0500 ca       380 PET     -0.078542
   8343 CA4        63.3100   75.0900   59.8900 ca       380 PET     -0.078542
   8344 CA5        64.6300   75.2300   59.8300 ca       380 PET     -0.108363
   8345 CA6        65.4000   75.7400   60.9400 ca       380 PET     -0.163574
   8346 C2         66.9000   75.8400   60.8400 c        380 PET      0.825469
   8347 C3         69.0900   75.6400   61.8700 c3       380 PET      0.058627
   8348 C4         69.4900   77.1000   62.1300 c3       380 PET      0.058627
   8349 O1         60.5600   74.3000   60.1400 os       380 PET     -0.411922
   8350 O2         60.3900   75.5000   62.1100 o        380 PET     -0.591068
   8351 O3         67.4000   76.1400   59.7800 o        380 PET     -0.591068
   8352 O4         67.6900   75.6300   61.9600 os       380 PET     -0.411922
   8353 HA2        62.6800   76.3400   63.0100 ha       380 PET      0.129090
   8354 HA3        65.0700   76.5400   62.9400 ha       380 PET      0.145907
   8355 HA4        62.7800   74.7100   59.0100 ha       380 PET      0.145907
   8356 HA5        65.0500   74.8400   58.9100 ha       380 PET      0.129090
   8357 H31        69.4900   74.9700   62.6400 h1       380 PET      0.097188
   8358 H32        69.4700   75.2500   60.9200 h1       380 PET      0.097188
   8359 H41        69.0800   77.3900   63.1100 h1       380 PET      0.097188
   8360 H42        69.3000   77.9200   61.4300 h1       380 PET      0.097188
   8361 C1         71.6600   78.3300   62.3600 c        381 PET      0.825469
   8362 CA1        73.1600   78.2600   62.0900 ca       381 PET     -0.163574
   8363 CA2        73.8600   77.0800   62.1500 ca       381 PET     -0.108363
   8364 CA3        75.2200   77.0800   61.8400 ca       381 PET     -0.078542
   8365 CA4        73.7600   79.5000   61.9900 ca       381 PET     -0.078542
   8366 CA5        75.1800   79.5400   61.8100 ca       381 PET     -0.108363
   8367 CA6        75.9100   78.2900   61.7400 ca       381 PET     -0.163574
   8368 C2         77.4200   78.2300   61.5200 c        381 PET      0.825469
   8369 C3         79.5300   79.4600   61.6800 c3       381 PET      0.058627
   8370 C4         80.1500   79.2100   60.3600 c3       381 PET      0.058627
   8371 O1         71.0100   77.1300   62.2600 os       381 PET     -0.411922
   8372 O2         71.0900   79.3400   62.5700 o        381 PET     -0.591068
   8373 O3         78.0300   77.2100   61.1300 o        381 PET     -0.591068
   8374 O4         78.0600   79.3900   61.7200 os       381 PET     -0.411922
   8375 HA2        73.2800   76.2000   62.4200 ha       381 PET      0.129090
   8376 HA3        75.6700   76.0900   61.8900 ha       381 PET      0.145907
   8377 HA4        73.1100   80.3600   62.0900 ha       381 PET      0.145907
   8378 HA5        75.6800   80.4800   61.5700 ha       381 PET      0.129090
   8379 H31        79.8300   80.4600   62.0100 h1       381 PET      0.097188
   8380 H32        79.9700   78.8300   62.4700 h1       381 PET      0.097188
   8381 H41        79.8000   80.0700   59.7700 h1       381 PET      0.097188
   8382 H42        79.7600   78.2700   59.9500 h1       381 PET      0.097188
   8383 C1          2.3000   78.2800   61.1400 c        382 PET      0.825469
   8384 CA1         3.7600   78.6300   61.1600 ca       382 PET     -0.163574
   8385 CA2         4.3000   79.8000   60.6500 ca       382 PET     -0.108363
   8386 CA3         5.7000   80.1100   60.7700 ca       382 PET     -0.078542
   8387 CA4         4.6700   77.6700   61.5600 ca       382 PET     -0.078542
   8388 CA5         6.0800   77.9900   61.7500 ca       382 PET     -0.108363
   8389 CA6         6.6000   79.1900   61.3500 ca       382 PET     -0.163574
   8390 C2          8.0900   79.4200   61.4900 c        382 PET      0.825469
   8391 C3          9.9200   80.7600   61.0500 c3       382 PET      0.058627
   8392 C4         10.1500   82.2700   60.7100 c3       382 PET      0.058627
   8393 O1          1.5500   79.2100   60.4500 os       382 PET     -0.411922
   8394 O2          1.8300   77.3200   61.7100 o        382 PET     -0.591068
   8395 O3          8.7700   78.4600   61.8600 o        382 PET     -0.591068
   8396 O4          8.5200   80.6600   61.1000 os       382 PET     -0.411922
   8397 HA2         3.6600   80.6200   60.3500 ha       382 PET      0.129090
   8398 HA3         6.0200   81.1100   60.5000 ha       382 PET      0.145907
   8399 HA4         4.3000   76.7600   62.0100 ha       382 PET      0.145907
   8400 HA5         6.7000   77.2300   62.2100 ha       382 PET      0.129090
   8401 H31        10.3700   80.5700   62.0300 h1       382 PET      0.097188
   8402 H32        10.4200   80.1500   60.2800 h1       382 PET      0.097188
   8403 H41         9.6900   82.9000   61.4900 h1       382 PET      0.097188
   8404 H42         9.6600   82.5500   59.7700 h1       382 PET      0.097188
   8405 C1         11.8900    3.8400   60.5500 c        383 PET      0.825469
   8406 CA1        13.3700    3.9200   60.4500 ca       383 PET     -0.163574
   8407 CA2        14.1600    2.7900   60.4000 ca       383 PET     -0.108363
   8408 CA3        15.5600    2.8700   60.2000 ca       383 PET     -0.078542
   8409 CA4        14.0300    5.1500   60.3200 ca       383 PET     -0.078542
   8410 CA5        15.4900    5.2300   60.1400 ca       383 PET     -0.108363
   8411 CA6        16.1900    4.0300   59.9600 ca       383 PET     -0.163574
   8412 C2         17.6800    4.0300   59.7100 c        383 PET      0.825469
   8413 C3         19.5600    5.4700   58.9900 c3       383 PET      0.058627
   8414 C4         20.0500    6.9000   59.3800 c3       383 PET      0.058627
   8415 O1         11.5300    2.5300   60.7200 os       383 PET     -0.411922
   8416 O2         11.1200    4.8200   60.4300 o        383 PET     -0.591068
   8417 O3         18.3900    3.0200   59.5300 o        383 PET     -0.591068
   8418 O4         18.1800    5.2700   59.5800 os       383 PET     -0.411922
   8419 HA2        13.7600    1.7900   60.4600 ha       383 PET      0.129090
   8420 HA3        16.2400    2.0300   60.2000 ha       383 PET      0.145907
   8421 HA4        13.4300    6.0500   60.4600 ha       383 PET      0.145907
   8422 HA5        15.9800    6.2000   60.1400 ha       383 PET      0.129090
   8423 H31        20.1900    4.7200   59.4800 h1       383 PET      0.097188
   8424 H32        19.4800    5.3400   57.9000 h1       383 PET      0.097188
   8425 H41        19.8900    6.9800   60.4700 h1       383 PET      0.097188
   8426 H42        19.3300    7.5800   58.9200 h1       383 PET      0.097188
   8427 C1         21.6400    7.3600   57.7100 c        384 PET      0.825469
   8428 CA1        23.1300    7.6300   57.3900 ca       384 PET     -0.163574
   8429 CA2        23.5700    8.3100   56.2100 ca       384 PET     -0.108363
   8430 CA3        24.9700    8.5500   55.9800 ca       384 PET     -0.078542
   8431 CA4        24.0700    7.3700   58.4100 ca       384 PET     -0.078542
   8432 CA5        25.4200    7.5700   58.1400 ca       384 PET     -0.108363
   8433 CA6        25.8800    8.0700   56.9200 ca       384 PET     -0.163574
   8434 C2         27.3600    8.0800   56.5700 c        384 PET      0.825469
   8435 C3         29.5900    8.2100   57.3700 c3       384 PET      0.058627
   8436 C4         30.2600    8.3500   58.7400 c3       384 PET      0.058627
   8437 O1         21.4100    7.1300   59.0100 os       384 PET     -0.411922
   8438 O2         20.7900    7.2100   56.8400 o        384 PET     -0.591068
   8439 O3         27.7500    8.5900   55.5500 o        384 PET     -0.591068
   8440 O4         28.1900    7.8100   57.5800 os       384 PET     -0.411922
   8441 HA2        22.8400    8.6800   55.4900 ha       384 PET      0.129090
   8442 HA3        25.2000    8.8800   54.9700 ha       384 PET      0.145907
   8443 HA4        23.7400    7.0200   59.3800 ha       384 PET      0.145907
   8444 HA5        26.1900    7.1600   58.7700 ha       384 PET      0.129090
   8445 H31        30.0600    7.5000   56.6800 h1       384 PET      0.097188
   8446 H32        29.6400    9.1900   56.8800 h1       384 PET      0.097188
   8447 H41        29.7600    7.6000   59.3700 h1       384 PET      0.097188
   8448 H42        30.2100    9.3700   59.1500 h1       384 PET      0.097188
   8449 C1         32.5100    8.9500   58.0700 c        385 PET      0.825469
   8450 CA1        33.8100    8.4900   57.5600 ca       385 PET     -0.163574
   8451 CA2        34.4500    9.1800   56.5600 ca       385 PET     -0.108363
   8452 CA3        35.6700    8.8400   56.1200 ca       385 PET     -0.078542
   8453 CA4        34.3700    7.2500   57.9800 ca       385 PET     -0.078542
   8454 CA5        35.6700    6.8800   57.5200 ca       385 PET     -0.108363
   8455 CA6        36.2800    7.6900   56.6000 ca       385 PET     -0.163574
   8456 C2         37.6700    7.4500   56.0100 c        385 PET      0.825469
   8457 C3         39.5400    6.0200   56.0700 c3       385 PET      0.058627
   8458 C4         40.6600    7.1600   56.2900 c3       385 PET      0.058627
   8459 O1         31.6500    7.9800   58.5700 os       385 PET     -0.411922
   8460 O2         32.1000   10.1300   58.0300 o        385 PET     -0.591068
   8461 O3         38.1400    7.9900   54.9800 o        385 PET     -0.591068
   8462 O4         38.2800    6.4700   56.6900 os       385 PET     -0.411922
   8463 HA2        34.0100   10.0100   56.0000 ha       385 PET      0.129090
   8464 HA3        36.1500    9.4700   55.3800 ha       385 PET      0.145907
   8465 HA4        33.8900    6.6200   58.7300 ha       385 PET      0.145907
   8466 HA5        36.0600    5.9200   57.8500 ha       385 PET      0.129090
   8467 H31        40.0000    5.1700   56.5900 h1       385 PET      0.097188
   8468 H32        39.4500    5.8300   54.9900 h1       385 PET      0.097188
   8469 H41        40.6800    7.6400   57.2800 h1       385 PET      0.097188
   8470 H42        40.4400    7.9500   55.5700 h1       385 PET      0.097188
   8471 C1         43.0800    7.5100   55.9700 c        386 PET      0.825469
   8472 CA1        44.4100    6.7900   55.7700 ca       386 PET     -0.163574
   8473 CA2        44.4800    5.5000   55.3600 ca       386 PET     -0.108363
   8474 CA3        45.7000    4.8200   55.4200 ca       386 PET     -0.078542
   8475 CA4        45.5700    7.4900   56.1700 ca       386 PET     -0.078542
   8476 CA5        46.8700    6.8300   56.1700 ca       386 PET     -0.108363
   8477 CA6        46.9300    5.4800   55.7200 ca       386 PET     -0.163574
   8478 C2         48.2400    4.7400   55.4900 c        386 PET      0.825469
   8479 C3         49.0600    2.6000   54.9200 c3       386 PET      0.058627
   8480 C4         49.5100    2.1600   56.3400 c3       386 PET      0.058627
   8481 O1         41.9500    6.6600   55.8800 os       386 PET     -0.411922
   8482 O2         42.9900    8.7500   56.2600 o        386 PET     -0.591068
   8483 O3         49.3400    5.1900   55.7800 o        386 PET     -0.591068
   8484 O4         47.9900    3.4900   54.9600 os       386 PET     -0.411922
   8485 HA2        43.6000    4.8800   55.2100 ha       386 PET      0.129090
   8486 HA3        45.7700    3.7800   55.1000 ha       386 PET      0.145907
   8487 HA4        45.5100    8.5200   56.5000 ha       386 PET      0.145907
   8488 HA5        47.6900    7.5200   56.3800 ha       386 PET      0.129090
   8489 H31        48.7800    1.7200   54.3300 h1       386 PET      0.097188
   8490 H32        49.8400    3.1400   54.3700 h1       386 PET      0.097188
   8491 H41        48.9000    1.3400   56.7400 h1       386 PET      0.097188
   8492 H42        49.3600    2.9200   57.1100 h1       386 PET      0.097188
   8493 C1         51.5800   80.8800   55.7900 c        387 PET      0.825469
   8494 CA1        53.0600   81.1700   55.6500 ca       387 PET     -0.163574
   8495 CA2        53.6700   82.4600   55.8100 ca       387 PET     -0.108363
   8496 CA3        55.0300   82.6300   55.5200 ca       387 PET     -0.078542
   8497 CA4        53.9600   80.1200   55.2000 ca       387 PET     -0.078542
   8498 CA5        55.3600   80.3200   55.0300 ca       387 PET     -0.108363
   8499 CA6        55.8700   81.5700   55.0900 ca       387 PET     -0.163574
   8500 C2         57.3600   81.8300   54.7600 c        387 PET      0.825469
   8501 C3         59.0400   83.6700   54.7900 c3       387 PET      0.058627
   8502 C4         59.2600   84.3000   53.4000 c3       387 PET      0.058627
   8503 O1         50.9000   81.9100   56.3900 os       387 PET     -0.411922
   8504 O2         51.0600   79.8300   55.3900 o        387 PET     -0.591068
   8505 O3         58.1800   80.8900   54.6900 o        387 PET     -0.591068
   8506 O4         57.7000   83.1300   54.8900 os       387 PET     -0.411922
   8507 HA2        53.0500   83.2900   56.1300 ha       387 PET      0.129090
   8508 HA3        55.5100   83.5900   55.7200 ha       387 PET      0.145907
   8509 HA4        53.6300   79.1200   54.9100 ha       387 PET      0.145907
   8510 HA5        56.0200   79.4600   54.9400 ha       387 PET      0.129090
   8511 H31        59.1500   84.4600   55.5500 h1       387 PET      0.097188
   8512 H32        59.7800   82.8800   54.9600 h1       387 PET      0.097188
   8513 H41        58.3600   84.8800   53.1700 h1       387 PET      0.097188
   8514 H42        59.2400   83.5400   52.6100 h1       387 PET      0.097188
   8515 C1         61.7400    4.8200   53.3800 c        388 PET      0.825469
   8516 CA1        62.7400    5.9500   53.3100 ca       388 PET     -0.163574
   8517 CA2        64.1300    5.7500   53.6200 ca       388 PET     -0.108363
   8518 CA3        65.0700    6.8300   53.6000 ca       388 PET     -0.078542
   8519 CA4        62.3700    7.2900   53.0100 ca       388 PET     -0.078542
   8520 CA5        63.3600    8.3000   52.9000 ca       388 PET     -0.108363
   8521 CA6        64.7400    8.1400   53.2700 ca       388 PET     -0.163574
   8522 C2         65.7300    9.1500   53.2600 c        388 PET      0.825469
   8523 C3         67.7100   10.0100   54.5100 c3       388 PET      0.058627
   8524 C4         68.6800    9.3000   55.5100 c3       388 PET      0.058627
   8525 O1         60.3900    5.2000   53.3800 os       388 PET     -0.411922
   8526 O2         62.0900    3.6500   53.4800 o        388 PET     -0.591068
   8527 O3         65.7300   10.1100   52.5400 o        388 PET     -0.591068
   8528 O4         66.7200    8.9800   54.2200 os       388 PET     -0.411922
   8529 HA2        64.4600    4.7300   53.7700 ha       388 PET      0.129090
   8530 HA3        66.0700    6.4600   53.7700 ha       388 PET      0.145907
   8531 HA4        61.3500    7.5700   52.7500 ha       388 PET      0.145907
   8532 HA5        63.0900    9.2500   52.4500 ha       388 PET      0.129090
   8533 H31        68.2000   10.4300   53.6200 h1       388 PET      0.097188
   8534 H32        67.0900   10.7600   55.0100 h1       388 PET      0.097188
   8535 H41        68.9300    8.2900   55.1900 h1       388 PET      0.097188
   8536 H42        68.1000    9.1500   56.4300 h1       388 PET      0.097188
   8537 C1         70.6000    9.6200   56.9100 c        389 PET      0.825469
   8538 CA1        72.0600    9.9200   56.9300 ca       389 PET     -0.163574
   8539 CA2        72.7400   10.0400   55.7300 ca       389 PET     -0.108363
   8540 CA3        74.1200   10.2600   55.6200 ca       389 PET     -0.078542
   8541 CA4        72.7500   10.1700   58.1600 ca       389 PET     -0.078542
   8542 CA5        74.1700   10.3900   58.0800 ca       389 PET     -0.108363
   8543 CA6        74.8900   10.4000   56.8400 ca       389 PET     -0.163574
   8544 C2         76.3300   10.8500   56.7500 c        389 PET      0.825469
   8545 C3         77.7000   12.5900   55.6400 c3       389 PET      0.058627
   8546 C4         78.9000   11.6700   55.4000 c3       389 PET      0.058627
   8547 O1         69.9100    9.9400   55.7900 os       389 PET     -0.411922
   8548 O2         70.0300    9.0000   57.8400 o        389 PET     -0.591068
   8549 O3         77.2400   10.4400   57.4300 o        389 PET     -0.591068
   8550 O4         76.4500   11.8700   55.8100 os       389 PET     -0.411922
   8551 HA2        72.2200    9.8300   54.8000 ha       389 PET      0.129090
   8552 HA3        74.5600   10.4500   54.6500 ha       389 PET      0.145907
   8553 HA4        72.2700   10.2700   59.1300 ha       389 PET      0.145907
   8554 HA5        74.6500   10.6600   59.0200 ha       389 PET      0.129090
   8555 H31        77.6100   13.3300   54.8400 h1       389 PET      0.097188
   8556 H32        77.9500   13.0900   56.5900 h1       389 PET      0.097188
   8557 H41        79.3400   11.2100   56.3000 h1       389 PET      0.097188
   8558 H42        79.6800   12.1000   54.7600 h1       389 PET      0.097188
   8559 C1         79.1400    9.5000   54.3700 c        390 PET      0.825469
   8560 CA1        78.3600    8.4000   53.7500 ca       390 PET     -0.163574
   8561 CA2        78.8500    7.1300   53.3000 ca       390 PET     -0.108363
   8562 CA3        78.1400    6.1000   52.8000 ca       390 PET     -0.078542
   8563 CA4        76.9100    8.4600   53.6000 ca       390 PET     -0.078542
   8564 CA5        76.1600    7.3900   53.1000 ca       390 PET     -0.108363
   8565 CA6        76.7900    6.1800   52.7700 ca       390 PET     -0.163574
   8566 C2         75.9700    5.0700   52.1100 c        390 PET      0.825469
   8567 C3         73.7200    4.2000   51.7000 c3       390 PET      0.058627
   8568 C4         73.9200    2.8100   52.2700 c3       390 PET      0.058627
   8569 O1         78.3300   10.6000   54.5700 os       390 PET     -0.411922
   8570 O2         80.3300    9.4000   54.7100 o        390 PET     -0.591068
   8571 O3         76.4800    4.1500   51.4100 o        390 PET     -0.591068
   8572 O4         74.6200    5.0900   52.4200 os       390 PET     -0.411922
   8573 HA2        79.9200    6.9000   53.3000 ha       390 PET      0.129090
   8574 HA3        78.6600    5.2200   52.4300 ha       390 PET      0.145907
   8575 HA4        76.4000    9.3900   53.7800 ha       390 PET      0.145907
   8576 HA5        75.0800    7.4500   52.9800 ha       390 PET      0.129090
   8577 H31        72.6500    4.3700   51.8800 h1       390 PET      0.097188
   8578 H32        73.9200    4.3000   50.6200 h1       390 PET      0.097188
   8579 H41        72.9500    2.3600   52.5300 h1       390 PET      0.097188
   8580 H42        74.4600    2.2100   51.5300 h1       390 PET      0.097188
   8581 C1         31.1100   69.7900   67.3700 c        391 PET      0.825469
   8582 CA1        31.8400   68.5200   67.8600 ca       391 PET     -0.163574
   8583 CA2        33.2500   68.5400   67.9900 ca       391 PET     -0.108363
   8584 CA3        33.9400   67.3800   68.4000 ca       391 PET     -0.078542
   8585 CA4        31.1400   67.3700   68.2700 ca       391 PET     -0.078542
   8586 CA5        31.8600   66.1800   68.6700 ca       391 PET     -0.108363
   8587 CA6        33.2800   66.1500   68.6200 ca       391 PET     -0.163574
   8588 C2         34.0500   64.8300   68.6400 c        391 PET      0.825469
   8589 C3         36.0100   63.6500   67.7000 c3       391 PET      0.058627
   8590 C4         36.6900   63.3800   69.0100 c3       391 PET      0.058627
   8591 O1         29.8000   69.6700   67.0400 os       391 PET     -0.411922
   8592 O2         31.7700   70.8300   67.1800 o        391 PET     -0.591068
   8593 O3         33.5600   63.8900   69.2400 o        391 PET     -0.591068
   8594 O4         35.1100   64.8500   67.8000 os       391 PET     -0.411922
   8595 HA2        33.8200   69.4500   67.8200 ha       391 PET      0.129090
   8596 HA3        35.0100   67.4200   68.6000 ha       391 PET      0.145907
   8597 HA4        30.0600   67.3100   68.1700 ha       391 PET      0.145907
   8598 HA5        31.3200   65.2900   68.9900 ha       391 PET      0.129090
   8599 H31        35.3900   62.7500   67.5600 h1       391 PET      0.097188
   8600 H32        36.7700   63.7600   66.9200 h1       391 PET      0.097188
   8601 H41        36.6200   62.3000   69.2000 h1       391 PET      0.097188
   8602 H42        36.2500   64.0200   69.7800 h1       391 PET      0.097188
   8603 C1         38.6500   64.9000   68.9800 c        392 PET      0.825469
   8604 CA1        40.1700   64.7400   68.8300 ca       392 PET     -0.163574
   8605 CA2        40.9300   65.8000   68.4300 ca       392 PET     -0.108363
   8606 CA3        42.3400   65.6600   68.3100 ca       392 PET     -0.078542
   8607 CA4        40.7500   63.5700   69.2000 ca       392 PET     -0.078542
   8608 CA5        42.1300   63.4000   69.1800 ca       392 PET     -0.108363
   8609 CA6        42.9400   64.4800   68.7600 ca       392 PET     -0.163574
   8610 C2         44.4600   64.3600   68.6800 c        392 PET      0.825469
   8611 C3         46.2900   62.7900   68.7000 c3       392 PET      0.058627
   8612 C4         46.4700   61.2700   68.6100 c3       392 PET      0.058627
   8613 O1         38.0800   63.6700   68.8600 os       392 PET     -0.411922
   8614 O2         38.0400   65.9500   69.1200 o        392 PET     -0.591068
   8615 O3         45.2100   65.3000   68.5400 o        392 PET     -0.591068
   8616 O4         44.8600   63.0400   68.9100 os       392 PET     -0.411922
   8617 HA2        40.4700   66.7300   68.1100 ha       392 PET      0.129090
   8618 HA3        42.9500   66.4500   67.9000 ha       392 PET      0.145907
   8619 HA4        40.1900   62.7200   69.5700 ha       392 PET      0.145907
   8620 HA5        42.4800   62.3700   69.2700 ha       392 PET      0.129090
   8621 H31        46.6600   63.2000   67.7500 h1       392 PET      0.097188
   8622 H32        46.8600   63.2900   69.5000 h1       392 PET      0.097188
   8623 H41        45.7200   60.9100   67.8900 h1       392 PET      0.097188
   8624 H42        46.3000   60.7400   69.5500 h1       392 PET      0.097188
   8625 C1         48.1300   59.6400   68.4600 c        393 PET      0.825469
   8626 CA1        49.6100   59.4300   68.6900 ca       393 PET     -0.163574
   8627 CA2        50.5600   60.4600   68.6700 ca       393 PET     -0.108363
   8628 CA3        51.8900   60.1300   68.7300 ca       393 PET     -0.078542
   8629 CA4        50.0700   58.0900   68.9100 ca       393 PET     -0.078542
   8630 CA5        51.4100   57.7300   68.8600 ca       393 PET     -0.108363
   8631 CA6        52.3700   58.7800   68.8400 ca       393 PET     -0.163574
   8632 C2         53.9300   58.4200   68.9100 c        393 PET      0.825469
   8633 C3         55.4600   56.5300   68.9700 c3       393 PET      0.058627
   8634 C4         55.3600   54.9800   68.8200 c3       393 PET      0.058627
   8635 O1         47.7800   60.9500   68.1900 os       393 PET     -0.411922
   8636 O2         47.3900   58.6800   68.5800 o        393 PET     -0.591068
   8637 O3         54.8300   59.2300   68.7600 o        393 PET     -0.591068
   8638 O4         54.1200   57.0700   69.1500 os       393 PET     -0.411922
   8639 HA2        50.2700   61.5000   68.5500 ha       393 PET      0.129090
   8640 HA3        52.5400   61.0000   68.6600 ha       393 PET      0.145907
   8641 HA4        49.2900   57.3400   68.9800 ha       393 PET      0.145907
   8642 HA5        51.6800   56.6900   69.0100 ha       393 PET      0.129090
   8643 H31        55.8700   56.8700   68.0100 h1       393 PET      0.097188
   8644 H32        56.1500   56.8500   69.7500 h1       393 PET      0.097188
   8645 H41        54.7300   54.7400   67.9600 h1       393 PET      0.097188
   8646 H42        54.7500   54.8300   69.7200 h1       393 PET      0.097188
   8647 C1         56.7600   53.0600   68.1800 c        394 PET      0.825469
   8648 CA1        58.1900   52.4700   68.1800 ca       394 PET     -0.163574
   8649 CA2        59.1600   52.8800   69.0600 ca       394 PET     -0.108363
   8650 CA3        60.4300   52.3100   69.0600 ca       394 PET     -0.078542
   8651 CA4        58.4700   51.4700   67.1900 ca       394 PET     -0.078542
   8652 CA5        59.7800   50.9500   67.2000 ca       394 PET     -0.108363
   8653 CA6        60.7400   51.2500   68.2000 ca       394 PET     -0.163574
   8654 C2         62.0600   50.5000   68.3100 c        394 PET      0.825469
   8655 C3         63.6400   49.2000   67.0900 c3       394 PET      0.058627
   8656 C4         64.7100   50.1300   66.6700 c3       394 PET      0.058627
   8657 O1         56.6400   54.2400   68.8800 os       394 PET     -0.411922
   8658 O2         55.8300   52.5700   67.5900 o        394 PET     -0.591068
   8659 O3         62.7900   50.6100   69.2700 o        394 PET     -0.591068
   8660 O4         62.4300   49.8500   67.2000 os       394 PET     -0.411922
   8661 HA2        58.9900   53.6900   69.7600 ha       394 PET      0.129090
   8662 HA3        61.1400   52.6900   69.7900 ha       394 PET      0.145907
   8663 HA4        57.6800   51.1400   66.5200 ha       394 PET      0.145907
   8664 HA5        60.1200   50.1800   66.5100 ha       394 PET      0.129090
   8665 H31        63.9900   48.9500   68.1000 h1       394 PET      0.097188
   8666 H32        63.6200   48.3800   66.3600 h1       394 PET      0.097188
   8667 H41        64.7100   51.0600   67.2400 h1       394 PET      0.097188
   8668 H42        64.5300   50.4700   65.6400 h1       394 PET      0.097188
   8669 C1         67.1400   50.0800   66.2800 c        395 PET      0.825469
   8670 CA1        68.4300   49.3200   66.6300 ca       395 PET     -0.163574
   8671 CA2        68.4600   48.3300   67.6100 ca       395 PET     -0.108363
   8672 CA3        69.7000   47.6700   67.9500 ca       395 PET     -0.078542
   8673 CA4        69.6800   49.7400   66.1600 ca       395 PET     -0.078542
   8674 CA5        70.9100   49.1500   66.4700 ca       395 PET     -0.108363
   8675 CA6        70.9600   48.1200   67.4000 ca       395 PET     -0.163574
   8676 C2         72.2300   47.4800   67.9600 c        395 PET      0.825469
   8677 C3         74.5800   47.6400   68.0700 c3       395 PET      0.058627
   8678 C4         75.6600   48.5300   67.4100 c3       395 PET      0.058627
   8679 O1         66.0100   49.5100   66.8200 os       395 PET     -0.411922
   8680 O2         67.1000   50.9800   65.5000 o        395 PET     -0.591068
   8681 O3         72.1300   46.6600   68.8200 o        395 PET     -0.591068
   8682 O4         73.3500   47.8700   67.3800 os       395 PET     -0.411922
   8683 HA2        67.5800   48.1900   68.2300 ha       395 PET      0.129090
   8684 HA3        69.7100   46.9600   68.7800 ha       395 PET      0.145907
   8685 HA4        69.7000   50.6000   65.4900 ha       395 PET      0.145907
   8686 HA5        71.7800   49.6100   66.0100 ha       395 PET      0.129090
   8687 H31        74.4200   48.0200   69.0800 h1       395 PET      0.097188
   8688 H32        74.9000   46.6100   67.8800 h1       395 PET      0.097188
   8689 H41        75.7000   49.4600   68.0000 h1       395 PET      0.097188
   8690 H42        75.6100   48.7800   66.3500 h1       395 PET      0.097188
   8691 C1         -1.9200   48.5500   67.5000 c        396 PET      0.825469
   8692 CA1        -0.6700   47.7700   67.8300 ca       396 PET     -0.163574
   8693 CA2         0.5600   48.1200   67.2700 ca       396 PET     -0.108363
   8694 CA3         1.8300   47.6200   67.7000 ca       396 PET     -0.078542
   8695 CA4        -0.5800   46.6400   68.6900 ca       396 PET     -0.078542
   8696 CA5         0.6900   46.1300   69.0600 ca       396 PET     -0.108363
   8697 CA6         1.8700   46.5900   68.6000 ca       396 PET     -0.163574
   8698 C2          3.2200   46.0700   69.0800 c        396 PET      0.825469
   8699 C3          5.6000   46.2500   68.6300 c3       396 PET      0.058627
   8700 C4          5.8900   44.7800   68.6000 c3       396 PET      0.058627
   8701 O1         -3.0700   47.9100   67.8200 os       396 PET     -0.411922
   8702 O2         -1.8400   49.5800   66.9300 o        396 PET     -0.591068
   8703 O3          3.2300   45.2200   69.9200 o        396 PET     -0.591068
   8704 O4          4.2600   46.4500   68.2600 os       396 PET     -0.411922
   8705 HA2         0.5500   49.1000   66.7900 ha       396 PET      0.129090
   8706 HA3         2.7300   48.0300   67.2600 ha       396 PET      0.145907
   8707 HA4        -1.4800   46.1500   69.0500 ha       396 PET      0.145907
   8708 HA5         0.5900   45.3000   69.7600 ha       396 PET      0.129090
   8709 H31         6.2800   46.7600   67.9300 h1       396 PET      0.097188
   8710 H32         5.8900   46.7200   69.5700 h1       396 PET      0.097188
   8711 H41         5.3700   44.3200   67.7500 h1       396 PET      0.097188
   8712 H42         5.5800   44.3600   69.5600 h1       396 PET      0.097188
   8713 C1          7.8700   44.4200   67.2400 c        397 PET      0.825469
   8714 CA1         9.3900   44.2200   67.2900 ca       397 PET     -0.163574
   8715 CA2        10.1600   43.9500   66.1900 ca       397 PET     -0.108363
   8716 CA3        11.5600   43.6700   66.3000 ca       397 PET     -0.078542
   8717 CA4        10.0100   44.1900   68.5400 ca       397 PET     -0.078542
   8718 CA5        11.4600   43.9100   68.6600 ca       397 PET     -0.108363
   8719 CA6        12.2500   43.6300   67.4800 ca       397 PET     -0.163574
   8720 C2         13.7500   43.4400   67.4900 c        397 PET      0.825469
   8721 C3         15.7000   43.0900   69.0000 c3       397 PET      0.058627
   8722 C4         16.5200   44.4200   68.9100 c3       397 PET      0.058627
   8723 O1          7.3200   44.6100   68.4400 os       397 PET     -0.411922
   8724 O2          7.1900   44.4200   66.2400 o        397 PET     -0.591068
   8725 O3         14.3500   43.3200   66.4200 o        397 PET     -0.591068
   8726 O4         14.3500   43.5000   68.7200 os       397 PET     -0.411922
   8727 HA2         9.7200   44.0400   65.2000 ha       397 PET      0.129090
   8728 HA3        12.1300   43.3600   65.4300 ha       397 PET      0.145907
   8729 HA4         9.4400   44.4500   69.4300 ha       397 PET      0.145907
   8730 HA5        11.9800   43.9800   69.6100 ha       397 PET      0.129090
   8731 H31        15.7700   42.6000   69.9800 h1       397 PET      0.097188
   8732 H32        16.1000   42.3700   68.2700 h1       397 PET      0.097188
   8733 H41        16.2200   44.9900   69.7900 h1       397 PET      0.097188
   8734 H42        16.2400   44.8800   67.9600 h1       397 PET      0.097188
   8735 C1         18.7200   44.8500   67.9800 c        398 PET      0.825469
   8736 CA1        20.1900   44.3900   67.8200 ca       398 PET     -0.163574
   8737 CA2        20.7600   43.3500   68.6300 ca       398 PET     -0.108363
   8738 CA3        22.0800   43.0100   68.4900 ca       398 PET     -0.078542
   8739 CA4        21.0500   45.0500   66.8700 ca       398 PET     -0.078542
   8740 CA5        22.3800   44.8100   66.7700 ca       398 PET     -0.108363
   8741 CA6        22.9500   43.7700   67.6100 ca       398 PET     -0.163574
   8742 C2         24.3200   43.2600   67.3500 c        398 PET      0.825469
   8743 C3         26.4600   42.7500   68.2800 c3       398 PET      0.058627
   8744 C4         27.0200   44.2100   68.2000 c3       398 PET      0.058627
   8745 O1         17.9600   44.1300   68.8800 os       398 PET     -0.411922
   8746 O2         18.2300   45.7200   67.2600 o        398 PET     -0.591068
   8747 O3         24.8500   43.3400   66.3000 o        398 PET     -0.591068
   8748 O4         25.0500   42.7600   68.4000 os       398 PET     -0.411922
   8749 HA2        20.2100   42.8000   69.3900 ha       398 PET      0.129090
   8750 HA3        22.5000   42.2500   69.1300 ha       398 PET      0.145907
   8751 HA4        20.6200   45.8300   66.2500 ha       398 PET      0.145907
   8752 HA5        22.9300   45.3600   66.0100 ha       398 PET      0.129090
   8753 H31        26.9000   42.2300   69.1400 h1       398 PET      0.097188
   8754 H32        26.7700   42.3000   67.3200 h1       398 PET      0.097188
   8755 H41        26.5700   44.8400   68.9800 h1       398 PET      0.097188
   8756 H42        26.9500   44.6800   67.2200 h1       398 PET      0.097188
   8757 C1         29.2400   45.0900   68.5700 c        399 PET      0.825469
   8758 CA1        30.7400   44.7800   68.5200 ca       399 PET     -0.163574
   8759 CA2        31.0900   43.4500   68.4100 ca       399 PET     -0.108363
   8760 CA3        32.3900   43.0400   68.3600 ca       399 PET     -0.078542
   8761 CA4        31.7400   45.7500   68.3100 ca       399 PET     -0.078542
   8762 CA5        33.1100   45.3100   68.2500 ca       399 PET     -0.108363
   8763 CA6        33.4600   43.9800   68.4300 ca       399 PET     -0.163574
   8764 C2         34.9200   43.5000   68.4600 c        399 PET      0.825469
   8765 C3         37.3200   44.3000   68.4800 c3       399 PET      0.058627
   8766 C4         37.9500   43.6000   67.3500 c3       399 PET      0.058627
   8767 O1         28.4000   43.9700   68.5800 os       399 PET     -0.411922
   8768 O2         28.8600   46.2600   68.6100 o        399 PET     -0.591068
   8769 O3         35.3100   42.4000   68.8600 o        399 PET     -0.591068
   8770 O4         35.8800   44.5300   68.1800 os       399 PET     -0.411922
   8771 HA2        30.3500   42.6600   68.3600 ha       399 PET      0.129090
   8772 HA3        32.6800   42.0100   68.2000 ha       399 PET      0.145907
   8773 HA4        31.5200   46.8100   68.2300 ha       399 PET      0.145907
   8774 HA5        33.9000   46.0500   68.1800 ha       399 PET      0.129090
   8775 H31        37.8000   45.2700   68.6900 h1       399 PET      0.097188
   8776 H32        37.5100   43.7500   69.4100 h1       399 PET      0.097188
   8777 H41        38.3300   44.3800   66.6700 h1       399 PET      0.097188
   8778 H42        37.1900   43.0000   66.8400 h1       399 PET      0.097188
   8779 C1         40.1000   43.3000   68.4100 c        400 PET      0.825469
   8780 CA1        41.2800   42.3700   68.4900 ca       400 PET     -0.163574
   8781 CA2        41.1600   41.0300   68.4600 ca       400 PET     -0.108363
   8782 CA3        42.3200   40.1900   68.4700 ca       400 PET     -0.078542
   8783 CA4        42.5600   42.9400   68.5300 ca       400 PET     -0.078542
   8784 CA5        43.7500   42.2000   68.5700 ca       400 PET     -0.108363
   8785 CA6        43.6400   40.8000   68.4900 ca       400 PET     -0.163574
   8786 C2         44.8600   39.9200   68.3300 c        400 PET      0.825469
   8787 C3         47.2200   39.7900   68.7200 c3       400 PET      0.058627
   8788 C4         48.5100   40.7700   68.7400 c3       400 PET      0.058627
   8789 O1         38.9800   42.7000   67.9000 os       400 PET     -0.411922
   8790 O2         40.0900   44.4500   68.8000 o        400 PET     -0.591068
   8791 O3         44.8700   38.7300   68.0800 o        400 PET     -0.591068
   8792 O4         46.0600   40.6000   68.6100 os       400 PET     -0.411922
   8793 HA2        40.2000   40.5500   68.6500 ha       400 PET      0.129090
   8794 HA3        42.2200   39.1200   68.5700 ha       400 PET      0.145907
   8795 HA4        42.6800   44.0200   68.4400 ha       400 PET      0.145907
   8796 HA5        44.6900   42.7400   68.5400 ha       400 PET      0.129090
   8797 H31        47.1800   39.1200   69.5800 h1       400 PET      0.097188
   8798 H32        47.3000   39.2200   67.7900 h1       400 PET      0.097188
   8799 H41        48.4500   41.3500   69.6700 h1       400 PET      0.097188
   8800 H42        48.5500   41.4800   67.9000 h1       400 PET      0.097188
   8801 C1         50.8900   40.6700   69.0400 c        401 PET      0.825469
   8802 CA1        52.1800   39.8900   68.9200 ca       401 PET     -0.163574
   8803 CA2        52.1400   38.4900   68.7200 ca       401 PET     -0.108363
   8804 CA3        53.3300   37.8200   68.5600 ca       401 PET     -0.078542
   8805 CA4        53.4200   40.5700   69.0400 ca       401 PET     -0.078542
   8806 CA5        54.5700   39.8100   69.0000 ca       401 PET     -0.108363
   8807 CA6        54.5500   38.5100   68.5900 ca       401 PET     -0.163574
   8808 C2         55.9300   37.7900   68.4400 c        401 PET      0.825469
   8809 C3         58.3600   37.9100   68.6300 c3       401 PET      0.058627
   8810 C4         59.4200   38.9200   69.0200 c3       401 PET      0.058627
   8811 O1         49.7700   40.0100   68.6800 os       401 PET     -0.411922
   8812 O2         50.8800   41.8200   69.3600 o        401 PET     -0.591068
   8813 O3         55.9900   36.6300   68.0600 o        401 PET     -0.591068
   8814 O4         57.0500   38.5100   68.6900 os       401 PET     -0.411922
   8815 HA2        51.1500   38.0500   68.6700 ha       401 PET      0.129090
   8816 HA3        53.3300   36.7400   68.4300 ha       401 PET      0.145907
   8817 HA4        53.3700   41.6500   68.9200 ha       401 PET      0.145907
   8818 HA5        55.5300   40.3000   69.1800 ha       401 PET      0.129090
   8819 H31        58.4700   37.1700   69.4300 h1       401 PET      0.097188
   8820 H32        58.4800   37.4400   67.6500 h1       401 PET      0.097188
   8821 H41        59.2600   39.1800   70.0700 h1       401 PET      0.097188
   8822 H42        59.4900   39.7700   68.3300 h1       401 PET      0.097188
   8823 C1         61.8700   38.6700   69.0100 c        402 PET      0.825469
   8824 CA1        63.0200   37.7000   68.9500 ca       402 PET     -0.163574
   8825 CA2        62.8300   36.3100   69.0700 ca       402 PET     -0.108363
   8826 CA3        63.9500   35.4800   69.0500 ca       402 PET     -0.078542
   8827 CA4        64.3600   38.2200   68.8300 ca       402 PET     -0.078542
   8828 CA5        65.4600   37.3400   68.7100 ca       402 PET     -0.108363
   8829 CA6        65.2400   36.0000   68.8000 ca       402 PET     -0.163574
   8830 C2         66.3500   35.0400   68.7300 c        402 PET      0.825469
   8831 C3         68.7700   34.8300   68.7200 c3       402 PET      0.058627
   8832 C4         69.8200   35.9300   68.9300 c3       402 PET      0.058627
   8833 O1         60.6600   38.1600   68.9000 os       402 PET     -0.411922
   8834 O2         62.0200   39.8700   69.0200 o        402 PET     -0.591068
   8835 O3         66.2400   33.8100   68.5200 o        402 PET     -0.591068
   8836 O4         67.5900   35.5300   69.0400 os       402 PET     -0.411922
   8837 HA2        61.8700   35.8300   69.2000 ha       402 PET      0.129090
   8838 HA3        63.8700   34.4100   69.2600 ha       402 PET      0.145907
   8839 HA4        64.5200   39.2900   68.7500 ha       402 PET      0.145907
   8840 HA5        66.4300   37.7900   68.5700 ha       402 PET      0.129090
   8841 H31        68.8700   34.1000   69.5400 h1       402 PET      0.097188
   8842 H32        68.8400   34.3900   67.7200 h1       402 PET      0.097188
   8843 H41        70.0200   36.2100   69.9700 h1       402 PET      0.097188
   8844 H42        69.4800   36.8900   68.5000 h1       402 PET      0.097188
   8845 C1         71.7500   34.3700   68.9700 c        403 PET      0.825469
   8846 CA1        73.1900   34.4600   68.9100 ca       403 PET     -0.163574
   8847 CA2        73.9600   33.3100   68.9900 ca       403 PET     -0.108363
   8848 CA3        75.3400   33.3200   68.9300 ca       403 PET     -0.078542
   8849 CA4        73.8100   35.7400   68.8100 ca       403 PET     -0.078542
   8850 CA5        75.1900   35.7400   68.7700 ca       403 PET     -0.108363
   8851 CA6        75.9900   34.6300   68.8700 ca       403 PET     -0.163574
   8852 C2         77.5100   34.6200   68.8600 c        403 PET      0.825469
   8853 C3         79.6000   33.3800   68.5100 c3       403 PET      0.058627
   8854 C4         80.0800   34.4300   67.5300 c3       403 PET      0.058627
   8855 O1         71.1200   35.4800   68.4400 os       403 PET     -0.411922
   8856 O2         71.1300   33.4400   69.5400 o        403 PET     -0.591068
   8857 O3         78.0700   35.6100   69.2800 o        403 PET     -0.591068
   8858 O4         78.1800   33.4100   68.5600 os       403 PET     -0.411922
   8859 HA2        73.5000   32.3300   69.1100 ha       403 PET      0.129090
   8860 HA3        75.9500   32.4200   68.8700 ha       403 PET      0.145907
   8861 HA4        73.2600   36.6800   68.7800 ha       403 PET      0.145907
   8862 HA5        75.5600   36.7600   68.7700 ha       403 PET      0.129090
   8863 H31        80.0200   33.6800   69.4800 h1       403 PET      0.097188
   8864 H32        79.9700   32.4100   68.1500 h1       403 PET      0.097188
   8865 H41        79.9700   35.4200   68.0100 h1       403 PET      0.097188
   8866 H42        79.4400   34.4000   66.6400 h1       403 PET      0.097188
   8867 C1          2.0900   34.9800   66.2000 c        404 PET      0.825469
   8868 CA1         3.6000   34.6200   66.0400 ca       404 PET     -0.163574
   8869 CA2         4.4400   35.5200   65.4800 ca       404 PET     -0.108363
   8870 CA3         5.8100   35.2500   65.2600 ca       404 PET     -0.078542
   8871 CA4         4.1300   33.3400   66.3300 ca       404 PET     -0.078542
   8872 CA5         5.5000   33.0300   66.1000 ca       404 PET     -0.108363
   8873 CA6         6.3600   34.0100   65.5400 ca       404 PET     -0.163574
   8874 C2          7.8600   33.8300   65.4500 c        404 PET      0.825469
   8875 C3          9.9800   35.1100   65.3000 c3       404 PET      0.058627
   8876 C4         10.2500   36.6300   65.3700 c3       404 PET      0.058627
   8877 O1          1.4600   34.2000   67.1800 os       404 PET     -0.411922
   8878 O2          1.4900   35.8300   65.5400 o        404 PET     -0.591068
   8879 O3          8.4400   32.8100   65.8900 o        404 PET     -0.591068
   8880 O4          8.5500   34.9100   65.0100 os       404 PET     -0.411922
   8881 HA2         4.0500   36.5000   65.2300 ha       404 PET      0.129090
   8882 HA3         6.4100   35.9900   64.7300 ha       404 PET      0.145907
   8883 HA4         3.5100   32.6600   66.9000 ha       404 PET      0.145907
   8884 HA5         5.9400   32.0900   66.4400 ha       404 PET      0.129090
   8885 H31        10.3600   34.5800   66.1800 h1       404 PET      0.097188
   8886 H32        10.6900   34.6900   64.5800 h1       404 PET      0.097188
   8887 H41         9.6100   37.0800   66.1400 h1       404 PET      0.097188
   8888 H42        10.0000   37.1700   64.4500 h1       404 PET      0.097188
   8889 C1         12.0300   36.9300   66.9400 c        405 PET      0.825469
   8890 CA1        13.4600   36.9800   67.1200 ca       405 PET     -0.163574
   8891 CA2        14.3400   37.1900   66.0600 ca       405 PET     -0.108363
   8892 CA3        15.6900   37.1000   66.2600 ca       405 PET     -0.078542
   8893 CA4        14.0200   36.7200   68.3900 ca       405 PET     -0.078542
   8894 CA5        15.3900   36.6200   68.6000 ca       405 PET     -0.108363
   8895 CA6        16.2600   36.7000   67.4600 ca       405 PET     -0.163574
   8896 C2         17.7800   36.4800   67.5900 c        405 PET      0.825469
   8897 C3         19.6100   35.7900   68.9300 c3       405 PET      0.058627
   8898 C4         20.0600   34.5200   68.1300 c3       405 PET      0.058627
   8899 O1         11.6300   36.8400   65.5700 os       405 PET     -0.411922
   8900 O2         11.2800   36.9500   67.9000 o        405 PET     -0.591068
   8901 O3         18.4400   36.9000   66.6800 o        405 PET     -0.591068
   8902 O4         18.1700   35.9800   68.8000 os       405 PET     -0.411922
   8903 HA2        13.9300   37.4800   65.1000 ha       405 PET      0.129090
   8904 HA3        16.3500   37.2900   65.4200 ha       405 PET      0.145907
   8905 HA4        13.3700   36.4900   69.2300 ha       405 PET      0.145907
   8906 HA5        15.7500   36.3800   69.6000 ha       405 PET      0.129090
   8907 H31        20.2400   36.6500   68.6900 h1       405 PET      0.097188
   8908 H32        19.8200   35.7100   70.0000 h1       405 PET      0.097188
   8909 H41        19.5700   34.5100   67.1500 h1       405 PET      0.097188
   8910 H42        19.6900   33.6300   68.6500 h1       405 PET      0.097188
   8911 C1         22.2100   35.3100   67.3500 c        406 PET      0.825469
   8912 CA1        23.7400   35.2200   67.5500 ca       406 PET     -0.163574
   8913 CA2        24.6200   36.1200   66.9200 ca       406 PET     -0.108363
   8914 CA3        25.9900   36.1400   67.2400 ca       406 PET     -0.078542
   8915 CA4        24.3800   34.3000   68.4400 ca       406 PET     -0.078542
   8916 CA5        25.7200   34.3900   68.7800 ca       406 PET     -0.108363
   8917 CA6        26.5900   35.2700   68.1700 ca       406 PET     -0.163574
   8918 C2         28.0100   35.2300   68.3000 c        406 PET      0.825469
   8919 C3         29.9600   34.0300   69.0400 c3       406 PET      0.058627
   8920 C4         30.4200   33.1200   67.8900 c3       406 PET      0.058627
   8921 O1         21.4900   34.3900   68.0000 os       406 PET     -0.411922
   8922 O2         21.7200   36.2300   66.7200 o        406 PET     -0.591068
   8923 O3         28.7200   36.1300   67.7400 o        406 PET     -0.591068
   8924 O4         28.5200   34.1200   68.9100 os       406 PET     -0.411922
   8925 HA2        24.3100   36.8500   66.1900 ha       406 PET      0.129090
   8926 HA3        26.5800   36.8800   66.7200 ha       406 PET      0.145907
   8927 HA4        23.8200   33.4800   68.8700 ha       406 PET      0.145907
   8928 HA5        26.2000   33.6100   69.3600 ha       406 PET      0.129090
   8929 H31        30.4000   35.0300   68.9700 h1       406 PET      0.097188
   8930 H32        30.1900   33.5500   70.0000 h1       406 PET      0.097188
   8931 H41        29.9300   33.3600   66.9300 h1       406 PET      0.097188
   8932 H42        30.2000   32.0500   68.0500 h1       406 PET      0.097188
   8933 C1         32.5000   32.2400   66.8900 c        407 PET      0.825469
   8934 CA1        34.0400   32.1600   67.1200 ca       407 PET     -0.163574
   8935 CA2        34.7000   32.8400   68.2000 ca       407 PET     -0.108363
   8936 CA3        36.0400   32.7300   68.5000 ca       407 PET     -0.078542
   8937 CA4        34.8100   31.2400   66.3500 ca       407 PET     -0.078542
   8938 CA5        36.1700   31.1300   66.6200 ca       407 PET     -0.108363
   8939 CA6        36.8300   31.9300   67.6000 ca       407 PET     -0.163574
   8940 C2         38.3300   31.9400   67.7500 c        407 PET      0.825469
   8941 C3         40.4500   31.0800   66.8300 c3       407 PET      0.058627
   8942 C4         40.6400   30.1400   68.0500 c3       407 PET      0.058627
   8943 O1         31.9000   33.1800   67.6800 os       407 PET     -0.411922
   8944 O2         31.9200   31.4000   66.3000 o        407 PET     -0.591068
   8945 O3         38.8800   32.4500   68.7100 o        407 PET     -0.591068
   8946 O4         39.0100   31.4200   66.6300 os       407 PET     -0.411922
   8947 HA2        34.0700   33.5300   68.7500 ha       407 PET      0.129090
   8948 HA3        36.4700   33.3100   69.3100 ha       407 PET      0.145907
   8949 HA4        34.3700   30.6900   65.5300 ha       407 PET      0.145907
   8950 HA5        36.8200   30.6100   65.9200 ha       407 PET      0.129090
   8951 H31        40.8200   30.7100   65.8700 h1       407 PET      0.097188
   8952 H32        40.9900   32.0100   67.0100 h1       407 PET      0.097188
   8953 H41        40.0000   29.2600   67.9700 h1       407 PET      0.097188
   8954 H42        40.2100   30.5500   68.9700 h1       407 PET      0.097188
   8955 C1         42.6800   28.8900   67.3100 c        408 PET      0.825469
   8956 CA1        44.1900   28.8100   67.6100 ca       408 PET     -0.163574
   8957 CA2        45.0200   27.9200   66.9900 ca       408 PET     -0.108363
   8958 CA3        46.4400   27.9900   67.2000 ca       408 PET     -0.078542
   8959 CA4        44.7700   29.6600   68.5600 ca       408 PET     -0.078542
   8960 CA5        46.1600   29.7300   68.8200 ca       408 PET     -0.108363
   8961 CA6        47.0500   28.9100   68.0800 ca       408 PET     -0.163574
   8962 C2         48.5600   29.1500   68.2300 c        408 PET      0.825469
   8963 C3         50.7500   28.3500   67.7500 c3       408 PET      0.058627
   8964 C4         51.4300   27.0800   67.1700 c3       408 PET      0.058627
   8965 O1         42.0800   29.8100   68.1500 os       408 PET     -0.411922
   8966 O2         42.1000   28.3200   66.4000 o        408 PET     -0.591068
   8967 O3         48.9400   30.2900   68.5100 o        408 PET     -0.591068
   8968 O4         49.3600   28.0700   67.9200 os       408 PET     -0.411922
   8969 HA2        44.5800   27.2800   66.2300 ha       408 PET      0.129090
   8970 HA3        47.1000   27.3900   66.5900 ha       408 PET      0.145907
   8971 HA4        44.1400   30.2600   69.2100 ha       408 PET      0.145907
   8972 HA5        46.6100   30.4100   69.5400 ha       408 PET      0.129090
   8973 H31        50.8900   29.2600   67.1500 h1       408 PET      0.097188
   8974 H32        51.1500   28.6400   68.7400 h1       408 PET      0.097188
   8975 H41        50.9200   26.7800   66.2500 h1       408 PET      0.097188
   8976 H42        51.5400   26.2300   67.8500 h1       408 PET      0.097188
   8977 C1         53.7700   27.5800   67.5900 c        409 PET      0.825469
   8978 CA1        55.0600   27.9300   66.9600 ca       409 PET     -0.163574
   8979 CA2        56.2400   27.5400   67.5400 ca       409 PET     -0.108363
   8980 CA3        57.4700   27.7700   66.9100 ca       409 PET     -0.078542
   8981 CA4        55.0700   28.6100   65.7400 ca       409 PET     -0.078542
   8982 CA5        56.3100   28.9000   65.1300 ca       409 PET     -0.108363
   8983 CA6        57.5600   28.4600   65.6500 ca       409 PET     -0.163574
   8984 C2         58.8600   28.6400   64.8500 c        409 PET      0.825469
   8985 C3         61.2600   28.5900   65.0100 c3       409 PET      0.058627
   8986 C4         61.4800   30.1000   65.2300 c3       409 PET      0.058627
   8987 O1         52.7500   27.5000   66.6900 os       409 PET     -0.411922
   8988 O2         53.6400   27.4200   68.7900 o        409 PET     -0.591068
   8989 O3         58.8900   29.2400   63.8000 o        409 PET     -0.591068
   8990 O4         59.9000   28.1900   65.4300 os       409 PET     -0.411922
   8991 HA2        56.1900   27.1300   68.5500 ha       409 PET      0.129090
   8992 HA3        58.3700   27.3500   67.3500 ha       409 PET      0.145907
   8993 HA4        54.1500   29.0600   65.3600 ha       409 PET      0.145907
   8994 HA5        56.3100   29.3900   64.1600 ha       409 PET      0.129090
   8995 H31        62.0000   28.1200   65.6700 h1       409 PET      0.097188
   8996 H32        61.4100   28.3100   63.9600 h1       409 PET      0.097188
   8997 H41        61.0500   30.3200   66.2200 h1       409 PET      0.097188
   8998 H42        60.8500   30.6400   64.5200 h1       409 PET      0.097188
   8999 C1         63.6700   30.2100   64.0900 c        410 PET      0.825469
   9000 CA1        65.0500   30.7700   64.2300 ca       410 PET     -0.163574
   9001 CA2        65.5200   31.3000   65.5000 ca       410 PET     -0.108363
   9002 CA3        66.8500   31.6600   65.6700 ca       410 PET     -0.078542
   9003 CA4        65.9500   30.7400   63.2000 ca       410 PET     -0.078542
   9004 CA5        67.3000   31.1000   63.3500 ca       410 PET     -0.108363
   9005 CA6        67.8000   31.5500   64.6300 ca       410 PET     -0.163574
   9006 C2         69.2100   31.6300   64.9700 c        410 PET      0.825469
   9007 C3         71.4300   30.9600   64.2400 c3       410 PET      0.058627
   9008 C4         72.1200   32.3300   64.2400 c3       410 PET      0.058627
   9009 O1         62.9000   30.4300   65.2000 os       410 PET     -0.411922
   9010 O2         63.3500   29.6000   63.0900 o        410 PET     -0.591068
   9011 O3         69.5900   32.1700   66.0000 o        410 PET     -0.591068
   9012 O4         70.0300   31.1300   63.9700 os       410 PET     -0.411922
   9013 HA2        64.8200   31.3400   66.3200 ha       410 PET      0.129090
   9014 HA3        67.1300   31.8800   66.6900 ha       410 PET      0.145907
   9015 HA4        65.6500   30.4000   62.2100 ha       410 PET      0.145907
   9016 HA5        67.9600   31.0200   62.4900 ha       410 PET      0.129090
   9017 H31        71.6400   30.4300   65.1800 h1       410 PET      0.097188
   9018 H32        71.8300   30.4600   63.3500 h1       410 PET      0.097188
   9019 H41        71.8000   32.9100   65.1200 h1       410 PET      0.097188
   9020 H42        71.8100   32.7400   63.2700 h1       410 PET      0.097188
   9021 C1         74.2600   31.8000   65.2700 c        411 PET      0.825469
   9022 CA1        75.7400   31.9000   65.1900 ca       411 PET     -0.163574
   9023 CA2        76.3200   32.5600   64.0800 ca       411 PET     -0.108363
   9024 CA3        77.7200   32.6200   63.9800 ca       411 PET     -0.078542
   9025 CA4        76.5900   31.3000   66.1800 ca       411 PET     -0.078542
   9026 CA5        77.9700   31.3400   65.8800 ca       411 PET     -0.108363
   9027 CA6        78.5700   32.0000   64.8200 ca       411 PET     -0.163574
   9028 C2         80.1000   31.9600   64.5800 c        411 PET      0.825469
   9029 C3         81.9200   32.7600   63.2000 c3       411 PET      0.058627
   9030 C4         82.1900   33.4200   61.7800 c3       411 PET      0.058627
   9031 O1         73.5700   32.2200   64.1300 os       411 PET     -0.411922
   9032 O2         73.6900   31.6100   66.3300 o        411 PET     -0.591068
   9033 O3         80.8400   31.2600   65.1900 o        411 PET     -0.591068
   9034 O4         80.5200   32.6800   63.5500 os       411 PET     -0.411922
   9035 HA2        75.6600   33.0800   63.4000 ha       411 PET      0.129090
   9036 HA3        78.0900   33.1800   63.1300 ha       411 PET      0.145907
   9037 HA4        76.2100   30.6600   66.9800 ha       411 PET      0.145907
   9038 HA5        78.6300   30.6300   66.3800 ha       411 PET      0.129090
   9039 H31        82.4700   33.2100   64.0300 h1       411 PET      0.097188
   9040 H32        82.3400   31.7500   63.1100 h1       411 PET      0.097188
   9041 H41        81.2500   33.9300   61.5400 h1       411 PET      0.097188
   9042 H42        82.4300   32.6300   61.0600 h1       411 PET      0.097188
   9043 C1          4.4800   33.9100   62.3100 c        412 PET      0.825469
   9044 CA1         5.4800   35.0700   62.0800 ca       412 PET     -0.163574
   9045 CA2         6.8200   34.7500   62.1000 ca       412 PET     -0.108363
   9046 CA3         7.8800   35.7100   61.7900 ca       412 PET     -0.078542
   9047 CA4         5.0600   36.3700   61.9700 ca       412 PET     -0.078542
   9048 CA5         6.0900   37.3200   61.7200 ca       412 PET     -0.108363
   9049 CA6         7.5000   37.0600   61.6300 ca       412 PET     -0.163574
   9050 C2          8.4900   38.1700   61.3800 c        412 PET      0.825469
   9051 C3         10.9100   38.5800   61.4500 c3       412 PET      0.058627
   9052 C4         12.1000   37.9000   62.1200 c3       412 PET      0.058627
   9053 O1          3.2600   34.3600   61.8900 os       412 PET     -0.411922
   9054 O2          4.7800   32.8400   62.7800 o        412 PET     -0.591068
   9055 O3          8.1700   39.2800   60.9600 o        412 PET     -0.591068
   9056 O4          9.7800   37.7200   61.7600 os       412 PET     -0.411922
   9057 HA2         7.1800   33.7200   62.0800 ha       412 PET      0.129090
   9058 HA3         8.9000   35.3800   61.6200 ha       412 PET      0.145907
   9059 HA4         4.0400   36.7400   62.0900 ha       412 PET      0.145907
   9060 HA5         5.7300   38.3100   61.4300 ha       412 PET      0.129090
   9061 H31        11.1200   38.5900   60.3700 h1       412 PET      0.097188
   9062 H32        10.7600   39.5900   61.8500 h1       412 PET      0.097188
   9063 H41        12.4300   37.1000   61.4400 h1       412 PET      0.097188
   9064 H42        11.8100   37.5400   63.1100 h1       412 PET      0.097188
   9065 C1         14.4800   38.6000   62.1700 c        413 PET      0.825469
   9066 CA1        15.3300   39.9300   61.9100 ca       413 PET     -0.163574
   9067 CA2        14.7200   41.1800   61.6900 ca       413 PET     -0.108363
   9068 CA3        15.4600   42.3200   61.4300 ca       413 PET     -0.078542
   9069 CA4        16.7400   39.8700   62.0000 ca       413 PET     -0.078542
   9070 CA5        17.4800   41.1000   61.7000 ca       413 PET     -0.108363
   9071 CA6        16.8700   42.2600   61.3900 ca       413 PET     -0.163574
   9072 C2         17.5700   43.5400   61.0700 c        413 PET      0.825469
   9073 C3         17.3100   45.8100   60.3200 c3       413 PET      0.058627
   9074 C4         17.2500   46.3800   61.7600 c3       413 PET      0.058627
   9075 O1         13.1600   38.8700   62.1800 os       413 PET     -0.411922
   9076 O2         14.8900   37.4400   62.3000 o        413 PET     -0.591068
   9077 O3         18.7000   43.7100   61.4300 o        413 PET     -0.591068
   9078 O4         16.7600   44.5100   60.4300 os       413 PET     -0.411922
   9079 HA2        13.6400   41.2100   61.7800 ha       413 PET      0.129090
   9080 HA3        14.9500   43.2600   61.2700 ha       413 PET      0.145907
   9081 HA4        17.2500   38.9200   62.1200 ha       413 PET      0.145907
   9082 HA5        18.5500   41.0500   61.5700 ha       413 PET      0.129090
   9083 H31        18.3600   45.6600   60.0600 h1       413 PET      0.097188
   9084 H32        16.7400   46.4700   59.6600 h1       413 PET      0.097188
   9085 H41        17.1400   45.5500   62.4600 h1       413 PET      0.097188
   9086 H42        16.3400   46.9400   62.0400 h1       413 PET      0.097188
   9087 C1         18.4800   47.7500   63.2300 c        414 PET      0.825469
   9088 CA1        19.8600   48.2600   63.5700 ca       414 PET     -0.163574
   9089 CA2        20.8900   48.2300   62.6400 ca       414 PET     -0.108363
   9090 CA3        22.1800   48.7700   62.9200 ca       414 PET     -0.078542
   9091 CA4        20.1100   48.7700   64.8200 ca       414 PET     -0.078542
   9092 CA5        21.3700   49.2600   65.1800 ca       414 PET     -0.108363
   9093 CA6        22.4500   49.2500   64.2200 ca       414 PET     -0.163574
   9094 C2         23.7900   49.9200   64.5100 c        414 PET      0.825469
   9095 C3         25.9400   50.5800   63.4400 c3       414 PET      0.058627
   9096 C4         26.6700   49.4200   62.6200 c3       414 PET      0.058627
   9097 O1         18.4300   47.1000   62.0500 os       414 PET     -0.411922
   9098 O2         17.5200   48.0300   63.9200 o        414 PET     -0.591068
   9099 O3         24.2300   50.0100   65.6900 o        414 PET     -0.591068
   9100 O4         24.4600   50.3500   63.3700 os       414 PET     -0.411922
   9101 HA2        20.7400   47.8000   61.6500 ha       414 PET      0.129090
   9102 HA3        22.9500   48.8000   62.1600 ha       414 PET      0.145907
   9103 HA4        19.3100   48.9800   65.5200 ha       414 PET      0.145907
   9104 HA5        21.5600   49.8300   66.0800 ha       414 PET      0.129090
   9105 H31        26.3200   51.5700   63.1500 h1       414 PET      0.097188
   9106 H32        26.2300   50.4500   64.4900 h1       414 PET      0.097188
   9107 H41        26.3800   49.2500   61.5700 h1       414 PET      0.097188
   9108 H42        26.3400   48.4800   63.0800 h1       414 PET      0.097188
   9109 C1         28.7000   50.4100   61.8000 c        415 PET      0.825469
   9110 CA1        30.1600   50.3200   61.7800 ca       415 PET     -0.163574
   9111 CA2        31.0200   51.4400   61.6500 ca       415 PET     -0.108363
   9112 CA3        32.3700   51.2400   61.6300 ca       415 PET     -0.078542
   9113 CA4        30.7600   49.0800   62.0200 ca       415 PET     -0.078542
   9114 CA5        32.2000   48.9600   62.2600 ca       415 PET     -0.108363
   9115 CA6        33.0000   50.0300   61.9500 ca       415 PET     -0.163574
   9116 C2         34.4600   49.8600   61.9000 c        415 PET      0.825469
   9117 C3         36.5100   51.1300   61.7000 c3       415 PET      0.058627
   9118 C4         36.8700   52.6400   61.7300 c3       415 PET      0.058627
   9119 O1         28.1000   49.5600   62.6900 os       415 PET     -0.411922
   9120 O2         28.1800   51.2800   61.1300 o        415 PET     -0.591068
   9121 O3         35.0000   48.7600   61.9100 o        415 PET     -0.591068
   9122 O4         35.0300   51.0400   61.9700 os       415 PET     -0.411922
   9123 HA2        30.6200   52.4300   61.4700 ha       415 PET      0.129090
   9124 HA3        33.0000   52.0700   61.3500 ha       415 PET      0.145907
   9125 HA4        30.1800   48.1600   62.0200 ha       415 PET      0.145907
   9126 HA5        32.5900   47.9600   62.4600 ha       415 PET      0.129090
   9127 H31        36.9800   50.4700   62.4400 h1       415 PET      0.097188
   9128 H32        36.7400   50.7800   60.6800 h1       415 PET      0.097188
   9129 H41        36.2900   53.1400   62.5200 h1       415 PET      0.097188
   9130 H42        36.7500   53.1700   60.7700 h1       415 PET      0.097188
   9131 C1         38.9000   53.7900   62.3300 c        416 PET      0.825469
   9132 CA1        40.3700   53.6600   62.5600 ca       416 PET     -0.163574
   9133 CA2        40.8900   52.3300   62.5900 ca       416 PET     -0.108363
   9134 CA3        42.3300   52.1400   62.6900 ca       416 PET     -0.078542
   9135 CA4        41.2100   54.7500   62.7800 ca       416 PET     -0.078542
   9136 CA5        42.5800   54.5800   63.0200 ca       416 PET     -0.108363
   9137 CA6        43.1900   53.2800   62.8800 ca       416 PET     -0.163574
   9138 C2         44.6800   53.1500   63.0300 c        416 PET      0.825469
   9139 C3         46.6400   54.4500   63.4300 c3       416 PET      0.058627
   9140 C4         47.2400   54.4400   61.9800 c3       416 PET      0.058627
   9141 O1         38.2900   52.6100   61.9600 os       416 PET     -0.411922
   9142 O2         38.4000   54.9100   62.2700 o        416 PET     -0.591068
   9143 O3         45.2900   52.1300   62.7500 o        416 PET     -0.591068
   9144 O4         45.2300   54.3500   63.3500 os       416 PET     -0.411922
   9145 HA2        40.2300   51.4700   62.6100 ha       416 PET      0.129090
   9146 HA3        42.8300   51.1800   62.6800 ha       416 PET      0.145907
   9147 HA4        40.7700   55.7300   62.9200 ha       416 PET      0.145907
   9148 HA5        43.2100   55.4300   63.2900 ha       416 PET      0.129090
   9149 H31        46.9600   55.4100   63.8500 h1       416 PET      0.097188
   9150 H32        47.0800   53.6400   64.0200 h1       416 PET      0.097188
   9151 H41        46.4900   54.7100   61.2300 h1       416 PET      0.097188
   9152 H42        47.6300   53.4600   61.6900 h1       416 PET      0.097188
   9153 C1         48.2700   56.7200   61.9000 c        417 PET      0.825469
   9154 CA1        49.6500   57.3500   61.8900 ca       417 PET     -0.163574
   9155 CA2        50.7900   56.6000   62.0100 ca       417 PET     -0.108363
   9156 CA3        52.0500   57.1700   61.9600 ca       417 PET     -0.078542
   9157 CA4        49.7900   58.7600   61.8700 ca       417 PET     -0.078542
   9158 CA5        51.0700   59.2900   61.8700 ca       417 PET     -0.108363
   9159 CA6        52.2100   58.5000   62.0300 ca       417 PET     -0.163574
   9160 C2         53.6600   59.0000   62.2000 c        417 PET      0.825469
   9161 C3         55.4000   60.6200   62.7200 c3       417 PET      0.058627
   9162 C4         55.7500   62.1000   62.7400 c3       417 PET      0.058627
   9163 O1         48.3500   55.3500   62.0000 os       417 PET     -0.411922
   9164 O2         47.3000   57.4100   61.7100 o        417 PET     -0.591068
   9165 O3         54.5800   58.2300   62.1700 o        417 PET     -0.591068
   9166 O4         53.9800   60.3300   62.4200 os       417 PET     -0.411922
   9167 HA2        50.8300   55.5200   62.0800 ha       417 PET      0.129090
   9168 HA3        52.9100   56.5500   61.7300 ha       417 PET      0.145907
   9169 HA4        48.9100   59.4000   61.9200 ha       417 PET      0.145907
   9170 HA5        51.1900   60.3700   61.8700 ha       417 PET      0.129090
   9171 H31        55.6200   60.1400   63.6900 h1       417 PET      0.097188
   9172 H32        56.0100   60.2000   61.9200 h1       417 PET      0.097188
   9173 H41        55.2600   62.4900   63.6400 h1       417 PET      0.097188
   9174 H42        55.4200   62.5400   61.8000 h1       417 PET      0.097188
   9175 C1         57.5700   63.3700   63.4600 c        418 PET      0.825469
   9176 CA1        58.9700   63.3400   63.9700 ca       418 PET     -0.163574
   9177 CA2        59.8700   62.3300   63.6000 ca       418 PET     -0.108363
   9178 CA3        61.2200   62.4200   63.9800 ca       418 PET     -0.078542
   9179 CA4        59.3900   64.4300   64.7300 ca       418 PET     -0.078542
   9180 CA5        60.7200   64.4800   65.0600 ca       418 PET     -0.108363
   9181 CA6        61.6500   63.5000   64.7300 ca       418 PET     -0.163574
   9182 C2         63.1400   63.6300   65.2200 c        418 PET      0.825469
   9183 C3         65.2600   62.4000   65.5000 c3       418 PET      0.058627
   9184 C4         65.5600   60.9100   65.9000 c3       418 PET      0.058627
   9185 O1         57.0900   62.1400   63.0300 os       418 PET     -0.411922
   9186 O2         56.9500   64.4000   63.2900 o        418 PET     -0.591068
   9187 O3         63.6600   64.7300   65.3400 o        418 PET     -0.591068
   9188 O4         63.8400   62.4400   65.2500 os       418 PET     -0.411922
   9189 HA2        59.5600   61.4600   63.0200 ha       418 PET      0.129090
   9190 HA3        61.9900   61.7100   63.6700 ha       418 PET      0.145907
   9191 HA4        58.7200   65.2200   65.0400 ha       418 PET      0.145907
   9192 HA5        61.1000   65.3300   65.6200 ha       418 PET      0.129090
   9193 H31        65.8900   62.6100   64.6300 h1       418 PET      0.097188
   9194 H32        65.5600   63.0700   66.3200 h1       418 PET      0.097188
   9195 H41        64.6700   60.2900   65.7700 h1       418 PET      0.097188
   9196 H42        65.9500   60.9100   66.9200 h1       418 PET      0.097188
   9197 C1         67.7900   60.7100   64.8500 c        419 PET      0.825469
   9198 CA1        68.7700   59.7200   64.2600 ca       419 PET     -0.163574
   9199 CA2        70.1000   60.1000   64.0800 ca       419 PET     -0.108363
   9200 CA3        71.0400   59.2400   63.4600 ca       419 PET     -0.078542
   9201 CA4        68.3700   58.6000   63.5700 ca       419 PET     -0.078542
   9202 CA5        69.2700   57.7900   62.8000 ca       419 PET     -0.108363
   9203 CA6        70.6200   58.1300   62.7700 ca       419 PET     -0.163574
   9204 C2         71.6600   57.2600   62.1100 c        419 PET      0.825469
   9205 C3         73.9500   57.2600   61.1400 c3       419 PET      0.058627
   9206 C4         74.6300   56.9800   62.5100 c3       419 PET      0.058627
   9207 O1         66.5500   60.2100   65.0300 os       419 PET     -0.411922
   9208 O2         68.0900   61.8200   65.2600 o        419 PET     -0.591068
   9209 O3         71.7000   56.0700   62.2600 o        419 PET     -0.591068
   9210 O4         72.7000   57.9000   61.4700 os       419 PET     -0.411922
   9211 HA2        70.4300   61.0600   64.4700 ha       419 PET      0.129090
   9212 HA3        72.0600   59.6100   63.4300 ha       419 PET      0.145907
   9213 HA4        67.3100   58.4200   63.4600 ha       419 PET      0.145907
   9214 HA5        68.9100   56.9000   62.3000 ha       419 PET      0.129090
   9215 H31        73.7300   56.3100   60.6400 h1       419 PET      0.097188
   9216 H32        74.6000   57.8300   60.4700 h1       419 PET      0.097188
   9217 H41        74.1500   56.2000   63.1100 h1       419 PET      0.097188
   9218 H42        74.6100   57.9200   63.0700 h1       419 PET      0.097188
   9219 C1         -2.9900   57.1700   61.8500 c        420 PET      0.825469
   9220 CA1        -1.6400   56.7300   62.2700 ca       420 PET     -0.163574
   9221 CA2        -0.6500   57.7200   62.2600 ca       420 PET     -0.108363
   9222 CA3         0.6600   57.3900   62.2200 ca       420 PET     -0.078542
   9223 CA4        -1.2200   55.3800   62.2400 ca       420 PET     -0.078542
   9224 CA5         0.1200   54.9900   62.2400 ca       420 PET     -0.108363
   9225 CA6         1.1100   56.0500   62.1600 ca       420 PET     -0.163574
   9226 C2          2.5900   55.6600   62.1000 c        420 PET      0.825469
   9227 C3          4.8400   56.6400   62.3800 c3       420 PET      0.058627
   9228 C4          5.3800   57.9900   62.8500 c3       420 PET      0.058627
   9229 O1         -4.0100   56.4200   62.3100 os       420 PET     -0.411922
   9230 O2         -3.1500   58.1900   61.1700 o        420 PET     -0.591068
   9231 O3          2.9900   54.5800   61.7100 o        420 PET     -0.591068
   9232 O4          3.3800   56.7100   62.6100 os       420 PET     -0.411922
   9233 HA2        -0.8600   58.7900   62.2300 ha       420 PET      0.129090
   9234 HA3         1.4300   58.1500   62.0900 ha       420 PET      0.145907
   9235 HA4        -1.9700   54.6000   62.1400 ha       420 PET      0.145907
   9236 HA5         0.3900   53.9500   62.1300 ha       420 PET      0.129090
   9237 H31         5.4200   55.8400   62.8700 h1       420 PET      0.097188
   9238 H32         5.0000   56.5400   61.3000 h1       420 PET      0.097188
   9239 H41         5.0700   58.8100   62.1900 h1       420 PET      0.097188
   9240 H42         6.4800   58.0200   62.7700 h1       420 PET      0.097188
   9241 C1          4.7800    5.1100   68.9100 c        421 PET      0.825469
   9242 CA1         3.5900    5.9900   68.6900 ca       421 PET     -0.163574
   9243 CA2         2.3400    5.4100   68.3200 ca       421 PET     -0.108363
   9244 CA3         1.1500    6.1700   68.4100 ca       421 PET     -0.078542
   9245 CA4         3.6300    7.2800   69.1100 ca       421 PET     -0.078542
   9246 CA5         2.5000    8.1000   68.9200 ca       421 PET     -0.108363
   9247 CA6         1.2400    7.5300   68.6900 ca       421 PET     -0.163574
   9248 C2         -0.0700    8.3700   68.6400 c        421 PET      0.825469
   9249 C3         -2.5000    8.3100   68.9300 c3       421 PET      0.058627
   9250 C4         -2.7800    8.7400   67.4600 c3       421 PET      0.058627
   9251 O1          4.6300    3.8500   68.2800 os       421 PET     -0.411922
   9252 O2          5.8500    5.4800   69.3500 o        421 PET     -0.591068
   9253 O3         -0.0800    9.5500   68.2700 o        421 PET     -0.591068
   9254 O4         -1.2000    7.6600   68.9700 os       421 PET     -0.411922
   9255 HA2         2.2900    4.3700   68.0300 ha       421 PET      0.129090
   9256 HA3         0.2400    5.6700   68.0900 ha       421 PET      0.145907
   9257 HA4         4.5500    7.6900   69.5100 ha       421 PET      0.145907
   9258 HA5         2.4500    9.1400   69.2200 ha       421 PET      0.129090
   9259 H31        -3.3200    7.6800   69.2900 h1       421 PET      0.097188
   9260 H32        -2.5000    9.2000   69.5700 h1       421 PET      0.097188
   9261 H41        -2.3400    7.9900   66.8000 h1       421 PET      0.097188
   9262 H42        -2.3800    9.7400   67.2600 h1       421 PET      0.097188
   9263 C1         75.0500    9.7900   67.9300 c        422 PET      0.825469
   9264 CA1        73.6300    9.8900   67.5800 ca       422 PET     -0.163574
   9265 CA2        73.1200    9.2000   66.4500 ca       422 PET     -0.108363
   9266 CA3        71.8200    9.4600   66.0800 ca       422 PET     -0.078542
   9267 CA4        72.8300   10.8600   68.1500 ca       422 PET     -0.078542
   9268 CA5        71.5300   11.0100   67.8900 ca       422 PET     -0.108363
   9269 CA6        71.0200   10.3700   66.7800 ca       422 PET     -0.163574
   9270 C2         69.6200   10.7000   66.3800 c        422 PET      0.825469
   9271 C3         67.9900   10.6200   64.4800 c3       422 PET      0.058627
   9272 C4         67.1000    9.4600   64.9600 c3       422 PET      0.058627
   9273 O1         75.7600    8.8100   67.2500 os       422 PET     -0.411922
   9274 O2         75.5500   10.5000   68.8100 o        422 PET     -0.591068
   9275 O3         68.7600   11.1600   67.0500 o        422 PET     -0.591068
   9276 O4         69.3000   10.3400   65.0900 os       422 PET     -0.411922
   9277 HA2        73.6800    8.6500   65.6900 ha       422 PET      0.129090
   9278 HA3        71.4400    9.0500   65.1500 ha       422 PET      0.145907
   9279 HA4        73.2800   11.6000   68.8100 ha       422 PET      0.145907
   9280 HA5        70.9800   11.6900   68.5400 ha       422 PET      0.129090
   9281 H31        67.6600   11.6000   64.8400 h1       422 PET      0.097188
   9282 H32        68.0600   10.5800   63.3800 h1       422 PET      0.097188
   9283 H41        66.8100    9.7100   65.9900 h1       422 PET      0.097188
   9284 H42        67.6400    8.5100   64.9100 h1       422 PET      0.097188
   9285 C1         64.8800   10.2900   64.3500 c        423 PET      0.825469
   9286 CA1        63.9700   10.5200   63.1900 ca       423 PET     -0.163574
   9287 CA2        64.4700   10.2100   61.9300 ca       423 PET     -0.108363
   9288 CA3        63.5500   10.2000   60.9000 ca       423 PET     -0.078542
   9289 CA4        62.5700   10.6900   63.4700 ca       423 PET     -0.078542
   9290 CA5        61.7000   10.7600   62.3400 ca       423 PET     -0.108363
   9291 CA6        62.1900   10.5700   61.0400 ca       423 PET     -0.163574
   9292 C2         61.3600   10.9600   59.8400 c        423 PET      0.825469
   9293 C3         61.5800   11.0900   57.4600 c3       423 PET      0.058627
   9294 C4         62.0200   12.6000   57.6300 c3       423 PET      0.058627
   9295 O1         65.9200    9.4300   64.1400 os       423 PET     -0.411922
   9296 O2         64.7500   10.9200   65.4200 o        423 PET     -0.591068
   9297 O3         60.2600   11.5200   59.9500 o        423 PET     -0.591068
   9298 O4         61.9100   10.4800   58.7100 os       423 PET     -0.411922
   9299 HA2        65.5000    9.9500   61.6700 ha       423 PET      0.129090
   9300 HA3        63.9900   10.0400   59.9200 ha       423 PET      0.145907
   9301 HA4        62.1900   10.9700   64.4500 ha       423 PET      0.145907
   9302 HA5        60.6300   10.9100   62.5100 ha       423 PET      0.129090
   9303 H31        62.1300   10.6300   56.6400 h1       423 PET      0.097188
   9304 H32        60.5100   10.9700   57.2400 h1       423 PET      0.097188
   9305 H41        61.2700   13.1900   58.1600 h1       423 PET      0.097188
   9306 H42        62.1700   12.9700   56.6100 h1       423 PET      0.097188
   9307 C1         64.4700   12.2400   57.6500 c        424 PET      0.825469
   9308 CA1        65.7100   12.2500   58.4800 ca       424 PET     -0.163574
   9309 CA2        66.9700   11.8800   57.9100 ca       424 PET     -0.108363
   9310 CA3        68.0000   11.7300   58.8000 ca       424 PET     -0.078542
   9311 CA4        65.5800   12.5900   59.8600 ca       424 PET     -0.078542
   9312 CA5        66.6700   12.5300   60.6400 ca       424 PET     -0.108363
   9313 CA6        67.8600   12.0300   60.1500 ca       424 PET     -0.163574
   9314 C2         69.1300   11.8900   61.0400 c        424 PET      0.825469
   9315 C3         70.2800   13.1000   62.7900 c3       424 PET      0.058627
   9316 C4         70.0900   13.4900   64.2200 c3       424 PET      0.058627
   9317 O1         63.2700   12.6500   58.3200 os       424 PET     -0.411922
   9318 O2         64.4600   11.8800   56.5000 o        424 PET     -0.591068
   9319 O3         70.0500   11.2200   60.6900 o        424 PET     -0.591068
   9320 O4         69.0400   12.5300   62.2300 os       424 PET     -0.411922
   9321 HA2        67.0800   11.7100   56.8500 ha       424 PET      0.129090
   9322 HA3        68.9400   11.3700   58.3900 ha       424 PET      0.145907
   9323 HA4        64.7200   12.9900   60.3900 ha       424 PET      0.145907
   9324 HA5        66.5900   12.8400   61.6800 ha       424 PET      0.129090
   9325 H31        71.0500   12.3200   62.7600 h1       424 PET      0.097188
   9326 H32        70.6200   13.9100   62.1300 h1       424 PET      0.097188
   9327 H41        69.4400   12.7500   64.7100 h1       424 PET      0.097188
   9328 H42        69.5400   14.4300   64.3200 h1       424 PET      0.097188
   9329 C1         71.3900   13.9900   66.2500 c        425 PET      0.825469
   9330 CA1        72.8600   13.9800   66.8000 ca       425 PET     -0.163574
   9331 CA2        73.2600   14.2700   68.0900 ca       425 PET     -0.108363
   9332 CA3        74.6600   14.2800   68.4500 ca       425 PET     -0.078542
   9333 CA4        73.8400   13.5800   65.8800 ca       425 PET     -0.078542
   9334 CA5        75.1700   13.5900   66.1900 ca       425 PET     -0.108363
   9335 CA6        75.6400   13.9100   67.4800 ca       425 PET     -0.163574
   9336 C2         77.1000   13.7500   67.7300 c        425 PET      0.825469
   9337 C3         79.2200   13.1100   66.7100 c3       425 PET      0.058627
   9338 C4         79.6200   12.8900   65.2200 c3       425 PET      0.058627
   9339 O1         71.3500   13.5600   64.8800 os       425 PET     -0.411922
   9340 O2         70.4500   14.3100   66.9500 o        425 PET     -0.591068
   9341 O3         77.5900   13.6800   68.8300 o        425 PET     -0.591068
   9342 O4         77.9200   13.6500   66.6200 os       425 PET     -0.411922
   9343 HA2        72.5400   14.4500   68.8800 ha       425 PET      0.129090
   9344 HA3        74.9600   14.3700   69.4900 ha       425 PET      0.145907
   9345 HA4        73.5800   13.3200   64.8600 ha       425 PET      0.145907
   9346 HA5        75.9200   13.2800   65.4700 ha       425 PET      0.129090
   9347 H31        79.9800   13.7400   67.2000 h1       425 PET      0.097188
   9348 H32        79.1000   12.1600   67.2500 h1       425 PET      0.097188
   9349 H41        79.9800   13.8100   64.7300 h1       425 PET      0.097188
   9350 H42        78.8000   12.4900   64.6100 h1       425 PET      0.097188
   9351 C1          1.9400   12.4700   65.6400 c        426 PET      0.825469
   9352 CA1         2.9100   11.3900   65.8200 ca       426 PET     -0.163574
   9353 CA2         2.3800   10.0800   65.9900 ca       426 PET     -0.108363
   9354 CA3         3.2300    9.0300   66.1300 ca       426 PET     -0.078542
   9355 CA4         4.2900   11.5600   65.7900 ca       426 PET     -0.078542
   9356 CA5         5.1700   10.4300   65.8700 ca       426 PET     -0.108363
   9357 CA6         4.6300    9.2000   66.1000 ca       426 PET     -0.163574
   9358 C2          5.4900    7.9800   66.0200 c        426 PET      0.825469
   9359 C3          7.8600    7.4300   65.6300 c3       426 PET      0.058627
   9360 C4          8.1600    6.6700   66.9600 c3       426 PET      0.058627
   9361 O1          0.7000   11.9700   65.2400 os       426 PET     -0.411922
   9362 O2          2.2700   13.6200   65.8600 o        426 PET     -0.591068
   9363 O3          5.1300    6.8500   66.0500 o        426 PET     -0.591068
   9364 O4          6.7800    8.3700   65.8500 os       426 PET     -0.411922
   9365 HA2         1.3100    9.8900   65.9800 ha       426 PET      0.129090
   9366 HA3         2.8700    8.0100   66.0700 ha       426 PET      0.145907
   9367 HA4         4.6700   12.5700   65.6300 ha       426 PET      0.145907
   9368 HA5         6.2200   10.6900   65.7500 ha       426 PET      0.129090
   9369 H31         7.5700    6.7700   64.8000 h1       426 PET      0.097188
   9370 H32         8.7500    7.9700   65.2900 h1       426 PET      0.097188
   9371 H41         7.6300    5.7100   66.9500 h1       426 PET      0.097188
   9372 H42         7.8200    7.2400   67.8400 h1       426 PET      0.097188
   9373 C1         10.2900    7.3800   68.0000 c        427 PET      0.825469
   9374 CA1        11.8100    7.1800   67.9100 ca       427 PET     -0.163574
   9375 CA2        12.6100    8.0800   68.6800 ca       427 PET     -0.108363
   9376 CA3        14.0000    7.9200   68.5400 ca       427 PET     -0.078542
   9377 CA4        12.3600    6.2300   66.9900 ca       427 PET     -0.078542
   9378 CA5        13.7200    6.1200   66.8600 ca       427 PET     -0.108363
   9379 CA6        14.5300    7.0000   67.5600 ca       427 PET     -0.163574
   9380 C2         15.9200    7.0000   67.2800 c        427 PET      0.825469
   9381 C3         18.0200    7.9300   67.7700 c3       427 PET      0.058627
   9382 C4         18.6000    8.9200   68.8000 c3       427 PET      0.058627
   9383 O1          9.5900    6.5000   67.1400 os       427 PET     -0.411922
   9384 O2          9.7000    8.2700   68.6800 o        427 PET     -0.591068
   9385 O3         16.4000    6.2400   66.4300 o        427 PET     -0.591068
   9386 O4         16.6400    7.9300   67.9900 os       427 PET     -0.411922
   9387 HA2        12.1200    8.7900   69.3400 ha       427 PET      0.129090
   9388 HA3        14.7000    8.5300   69.1100 ha       427 PET      0.145907
   9389 HA4        11.7100    5.4200   66.6900 ha       427 PET      0.145907
   9390 HA5        14.2500    5.3500   66.3100 ha       427 PET      0.129090
   9391 H31        18.3900    6.9200   68.0000 h1       427 PET      0.097188
   9392 H32        18.2700    8.1400   66.7200 h1       427 PET      0.097188
   9393 H41        18.2600    8.6200   69.8000 h1       427 PET      0.097188
   9394 H42        18.0400    9.8300   68.5400 h1       427 PET      0.097188
   9395 C1         20.8800    8.0000   68.6300 c        428 PET      0.825469
   9396 CA1        22.2700    8.3100   68.1600 ca       428 PET     -0.163574
   9397 CA2        22.5700    9.3600   67.2100 ca       428 PET     -0.108363
   9398 CA3        23.9000    9.7200   66.8800 ca       428 PET     -0.078542
   9399 CA4        23.3500    7.6600   68.7400 ca       428 PET     -0.078542
   9400 CA5        24.6100    7.8100   68.2600 ca       428 PET     -0.108363
   9401 CA6        24.9200    8.8400   67.3200 ca       428 PET     -0.163574
   9402 C2         26.3700    9.0100   66.8500 c        428 PET      0.825469
   9403 C3         28.5800    7.9000   67.2000 c3       428 PET      0.058627
   9404 C4         29.2100    7.0800   68.3300 c3       428 PET      0.058627
   9405 O1         20.0100    9.0600   68.5500 os       428 PET     -0.411922
   9406 O2         20.6200    7.0000   69.2700 o        428 PET     -0.591068
   9407 O3         26.7700    9.5200   65.8400 o        428 PET     -0.591068
   9408 O4         27.2400    8.3400   67.7100 os       428 PET     -0.411922
   9409 HA2        21.7600    9.9300   66.7500 ha       428 PET      0.129090
   9410 HA3        24.1800   10.5400   66.2100 ha       428 PET      0.145907
   9411 HA4        23.1700    6.8500   69.4400 ha       428 PET      0.145907
   9412 HA5        25.4700    7.2700   68.6700 ha       428 PET      0.129090
   9413 H31        28.4100    7.2500   66.3300 h1       428 PET      0.097188
   9414 H32        29.3000    8.7100   67.0200 h1       428 PET      0.097188
   9415 H41        28.6100    6.1900   68.5600 h1       428 PET      0.097188
   9416 H42        29.2200    7.8000   69.1500 h1       428 PET      0.097188
   9417 C1         30.8800    5.8100   67.0600 c        429 PET      0.825469
   9418 CA1        32.3500    5.3000   67.1900 ca       429 PET     -0.163574
   9419 CA2        32.7900    4.0700   66.6200 ca       429 PET     -0.108363
   9420 CA3        34.0100    3.5400   66.8600 ca       429 PET     -0.078542
   9421 CA4        33.2200    5.8800   68.0700 ca       429 PET     -0.078542
   9422 CA5        34.6000    5.5100   68.1400 ca       429 PET     -0.108363
   9423 CA6        34.9700    4.2900   67.4900 ca       429 PET     -0.163574
   9424 C2         36.3100    3.7300   67.7700 c        429 PET      0.825469
   9425 C3         38.5600    4.1100   68.5100 c3       429 PET      0.058627
   9426 C4         39.6200    5.3000   68.7900 c3       429 PET      0.058627
   9427 O1         30.5900    6.7400   68.0200 os       429 PET     -0.411922
   9428 O2         30.1900    5.4600   66.1500 o        429 PET     -0.591068
   9429 O3         36.5200    2.5200   67.6700 o        429 PET     -0.591068
   9430 O4         37.2600    4.6700   68.2100 os       429 PET     -0.411922
   9431 HA2        32.0400    3.5900   66.0000 ha       429 PET      0.129090
   9432 HA3        34.3200    2.5900   66.4300 ha       429 PET      0.145907
   9433 HA4        32.7900    6.5600   68.8000 ha       429 PET      0.145907
   9434 HA5        35.3400    5.9500   68.8100 ha       429 PET      0.129090
   9435 H31        38.5500    3.4000   69.3500 h1       429 PET      0.097188
   9436 H32        38.8700    3.5300   67.6400 h1       429 PET      0.097188
   9437 H41        39.9100    5.3200   69.8500 h1       429 PET      0.097188
   9438 H42        39.0200    6.2000   68.5700 h1       429 PET      0.097188
   9439 C1         40.8600    5.4800   66.6500 c        430 PET      0.825469
   9440 CA1        42.1100    4.9900   65.9900 ca       430 PET     -0.163574
   9441 CA2        42.5400    5.6800   64.7800 ca       430 PET     -0.108363
   9442 CA3        43.7500    5.4100   64.2000 ca       430 PET     -0.078542
   9443 CA4        42.9700    4.0700   66.5700 ca       430 PET     -0.078542
   9444 CA5        44.2000    3.8300   66.0400 ca       430 PET     -0.108363
   9445 CA6        44.6100    4.4800   64.9000 ca       430 PET     -0.163574
   9446 C2         45.9500    4.2000   64.2900 c        430 PET      0.825469
   9447 C3         48.2700    3.7000   64.7300 c3       430 PET      0.058627
   9448 C4         48.6200    2.2300   64.6100 c3       430 PET      0.058627
   9449 O1         40.7700    5.1100   67.9400 os       430 PET     -0.411922
   9450 O2         39.9800    5.9900   66.0300 o        430 PET     -0.591068
   9451 O3         46.2000    4.4100   63.1100 o        430 PET     -0.591068
   9452 O4         46.8800    3.7700   65.1900 os       430 PET     -0.411922
   9453 HA2        41.9400    6.5000   64.4000 ha       430 PET      0.129090
   9454 HA3        44.2200    6.0200   63.4300 ha       430 PET      0.145907
   9455 HA4        42.6200    3.5900   67.4800 ha       430 PET      0.145907
   9456 HA5        44.8200    3.1200   66.5800 ha       430 PET      0.129090
   9457 H31        48.3200    4.2200   63.7600 h1       430 PET      0.097188
   9458 H32        48.9300    4.2200   65.4300 h1       430 PET      0.097188
   9459 H41        48.4400    1.9600   63.5600 h1       430 PET      0.097188
   9460 H42        47.9900    1.6800   65.3300 h1       430 PET      0.097188
   9461 C1         50.5200   80.9800   65.3000 c        431 PET      0.825469
   9462 CA1        52.0300   81.0000   65.4900 ca       431 PET     -0.163574
   9463 CA2        52.6700   79.8300   65.7700 ca       431 PET     -0.108363
   9464 CA3        54.0600   79.8200   65.9700 ca       431 PET     -0.078542
   9465 CA4        52.7200   82.2200   65.4900 ca       431 PET     -0.078542
   9466 CA5        54.1300   82.2500   65.4300 ca       431 PET     -0.108363
   9467 CA6        54.8600   81.0700   65.7500 ca       431 PET     -0.163574
   9468 C2         56.4200   81.1000   65.8600 c        431 PET      0.825469
   9469 C3         58.3700   82.3900   65.2700 c3       431 PET      0.058627
   9470 C4         59.1000   81.4200   64.3600 c3       431 PET      0.058627
   9471 O1         50.0200   82.2100   65.0600 os       431 PET     -0.411922
   9472 O2         49.8800   79.9500   65.1300 o        431 PET     -0.591068
   9473 O3         57.0500   80.2400   66.4000 o        431 PET     -0.591068
   9474 O4         56.9800   82.1200   65.2800 os       431 PET     -0.411922
   9475 HA2        52.0900   78.9400   65.9900 ha       431 PET      0.129090
   9476 HA3        54.4800   78.8600   66.2200 ha       431 PET      0.145907
   9477 HA4        52.2800   83.2100   65.4100 ha       431 PET      0.145907
   9478 HA5        54.6600   83.1700   65.2100 ha       431 PET      0.129090
   9479 H31        58.4500   83.4400   64.9400 h1       431 PET      0.097188
   9480 H32        58.7400   82.3600   66.3000 h1       431 PET      0.097188
   9481 H41        58.7900   81.5100   63.3100 h1       431 PET      0.097188
   9482 H42        58.8700   80.4000   64.6700 h1       431 PET      0.097188
   9483 C1         61.0900   82.5700   63.7800 c        432 PET      0.825469
   9484 CA1        62.5900   82.5000   63.7500 ca       432 PET     -0.163574
   9485 CA2        63.3100   83.0800   62.6800 ca       432 PET     -0.108363
   9486 CA3        64.6900   82.9300   62.5700 ca       432 PET     -0.078542
   9487 CA4        63.2300   81.7700   64.8000 ca       432 PET     -0.078542
   9488 CA5        64.5700   81.6600   64.7400 ca       432 PET     -0.108363
   9489 CA6        65.3000   82.2400   63.6300 ca       432 PET     -0.163574
   9490 C2         66.7100   81.8200   63.3300 c        432 PET      0.825469
   9491 C3         68.7000   80.7600   64.1200 c3       432 PET      0.058627
   9492 C4         69.0100   80.1300   65.4600 c3       432 PET      0.058627
   9493 O1         60.4700   81.5900   64.5100 os       432 PET     -0.411922
   9494 O2         60.4800   83.4000   63.1000 o        432 PET     -0.591068
   9495 O3         67.2200   81.9800   62.2300 o        432 PET     -0.591068
   9496 O4         67.3100   81.1400   64.3200 os       432 PET     -0.411922
   9497 HA2        62.6700   83.5100   61.9200 ha       432 PET      0.129090
   9498 HA3        65.1800   83.2600   61.6600 ha       432 PET      0.145907
   9499 HA4        62.7400   81.3500   65.6700 ha       432 PET      0.145907
   9500 HA5        65.1800   81.0800   65.4300 ha       432 PET      0.129090
   9501 H31        68.9000   80.1100   63.2600 h1       432 PET      0.097188
   9502 H32        69.2700   81.7000   64.1200 h1       432 PET      0.097188
   9503 H41        68.3000   79.3700   65.7900 h1       432 PET      0.097188
   9504 H42        68.9900   80.9600   66.1900 h1       432 PET      0.097188
   9505 C1         70.6100   78.3100   65.5400 c        433 PET      0.825469
   9506 CA1        72.0500   77.9400   65.3900 ca       433 PET     -0.163574
   9507 CA2        73.1200   78.8600   65.3100 ca       433 PET     -0.108363
   9508 CA3        74.4500   78.4000   65.2600 ca       433 PET     -0.078542
   9509 CA4        72.3700   76.5300   65.4500 ca       433 PET     -0.078542
   9510 CA5        73.7100   76.1000   65.3700 ca       433 PET     -0.108363
   9511 CA6        74.7200   77.0500   65.2400 ca       433 PET     -0.163574
   9512 C2         76.1700   76.5700   65.2600 c        433 PET      0.825469
   9513 C3         78.2800   76.9600   64.1400 c3       433 PET      0.058627
   9514 C4         79.1300   76.7900   65.4300 c3       433 PET      0.058627
   9515 O1         70.3800   79.7000   65.4700 os       433 PET     -0.411922
   9516 O2         69.6800   77.4900   65.5200 o        433 PET     -0.591068
   9517 O3         76.5900   75.4900   65.7000 o        433 PET     -0.591068
   9518 O4         76.9700   77.4400   64.5600 os       433 PET     -0.411922
   9519 HA2        72.8800   79.9200   65.3300 ha       433 PET      0.129090
   9520 HA3        75.3000   79.0700   65.2400 ha       433 PET      0.145907
   9521 HA4        71.5300   75.8600   65.5900 ha       433 PET      0.145907
   9522 HA5        73.9500   75.0500   65.5000 ha       433 PET      0.129090
   9523 H31        78.3500   76.0000   63.6000 h1       433 PET      0.097188
   9524 H32        78.7200   77.7800   63.5600 h1       433 PET      0.097188
   9525 H41        78.8400   75.8400   65.8900 h1       433 PET      0.097188
   9526 H42        78.9300   77.6600   66.0700 h1       433 PET      0.097188
   9527 C1          1.1300   75.5600   64.6300 c        434 PET      0.825469
   9528 CA1         2.6600   75.5500   64.6400 ca       434 PET     -0.163574
   9529 CA2         3.4100   74.5000   64.1000 ca       434 PET     -0.108363
   9530 CA3         4.8500   74.4800   64.2000 ca       434 PET     -0.078542
   9531 CA4         3.3400   76.6600   65.2600 ca       434 PET     -0.078542
   9532 CA5         4.7500   76.7400   65.1600 ca       434 PET     -0.108363
   9533 CA6         5.5400   75.6500   64.6000 ca       434 PET     -0.163574
   9534 C2          7.0400   75.6200   64.7200 c        434 PET      0.825469
   9535 C3          9.0900   76.8500   64.9900 c3       434 PET      0.058627
   9536 C4          9.6800   78.2400   64.9100 c3       434 PET      0.058627
   9537 O1          0.5800   76.6900   65.1200 os       434 PET     -0.411922
   9538 O2          0.4500   74.6300   64.2800 o        434 PET     -0.591068
   9539 O3          7.6500   74.5900   64.5700 o        434 PET     -0.591068
   9540 O4          7.6700   76.8500   64.9300 os       434 PET     -0.411922
   9541 HA2         2.8800   73.6700   63.6400 ha       434 PET      0.129090
   9542 HA3         5.4300   73.5700   64.0800 ha       434 PET      0.145907
   9543 HA4         2.8500   77.4300   65.8500 ha       434 PET      0.145907
   9544 HA5         5.2600   77.5800   65.6200 ha       434 PET      0.129090
   9545 H31         9.3900   76.3300   65.9000 h1       434 PET      0.097188
   9546 H32         9.5600   76.3800   64.1200 h1       434 PET      0.097188
   9547 H41         9.5100   78.7700   65.8500 h1       434 PET      0.097188
   9548 H42         9.2100   78.7600   64.0600 h1       434 PET      0.097188
   9549 C1         11.7800   79.3300   64.4500 c        435 PET      0.825469
   9550 CA1        13.2600   79.3000   64.2800 ca       435 PET     -0.163574
   9551 CA2        14.0800   78.4400   65.1400 ca       435 PET     -0.108363
   9552 CA3        15.4800   78.6500   65.1400 ca       435 PET     -0.078542
   9553 CA4        13.8700   80.1100   63.3200 ca       435 PET     -0.078542
   9554 CA5        15.2600   80.3400   63.3900 ca       435 PET     -0.108363
   9555 CA6        16.0600   79.6300   64.2900 ca       435 PET     -0.163574
   9556 C2         17.5900   79.9500   64.4500 c        435 PET      0.825469
   9557 C3         19.4000   81.3700   63.8800 c3       435 PET      0.058627
   9558 C4         19.7300   82.5000   62.9800 c3       435 PET      0.058627
   9559 O1         11.1100   78.1600   64.6600 os       435 PET     -0.411922
   9560 O2         11.1900   80.3900   64.3800 o        435 PET     -0.591068
   9561 O3         18.3300   79.1400   65.0400 o        435 PET     -0.591068
   9562 O4         18.0400   81.0300   63.7300 os       435 PET     -0.411922
   9563 HA2        13.5100   77.7400   65.7500 ha       435 PET      0.129090
   9564 HA3        16.0500   78.0200   65.8200 ha       435 PET      0.145907
   9565 HA4        13.2300   80.6100   62.6000 ha       435 PET      0.145907
   9566 HA5        15.7000   81.0700   62.7100 ha       435 PET      0.129090
   9567 H31        19.6500   81.4600   64.9500 h1       435 PET      0.097188
   9568 H32        19.9900   80.5200   63.5000 h1       435 PET      0.097188
   9569 H41        19.0600   83.3500   63.1900 h1       435 PET      0.097188
   9570 H42        19.5900   82.2500   61.9200 h1       435 PET      0.097188
   9571 C1         21.7400    3.7900   62.5000 c        436 PET      0.825469
   9572 CA1        23.2200    3.6700   62.5700 ca       436 PET     -0.163574
   9573 CA2        23.8900    2.7700   63.4800 ca       436 PET     -0.108363
   9574 CA3        25.2700    2.6500   63.4100 ca       436 PET     -0.078542
   9575 CA4        23.9900    4.4600   61.7200 ca       436 PET     -0.078542
   9576 CA5        25.3500    4.5200   61.8500 ca       436 PET     -0.108363
   9577 CA6        26.0200    3.5200   62.6100 ca       436 PET     -0.163574
   9578 C2         27.4900    3.5400   62.6500 c        436 PET      0.825469
   9579 C3         29.4000    3.3800   64.1400 c3       436 PET      0.058627
   9580 C4         29.9400    1.9900   63.7200 c3       436 PET      0.058627
   9581 O1         21.1500    2.7400   63.1900 os       436 PET     -0.411922
   9582 O2         21.0600    4.5700   61.8500 o        436 PET     -0.591068
   9583 O3         28.2400    3.6600   61.6900 o        436 PET     -0.591068
   9584 O4         27.9300    3.3700   63.9400 os       436 PET     -0.411922
   9585 HA2        23.3500    2.1400   64.1900 ha       436 PET      0.129090
   9586 HA3        25.7900    1.9700   64.0800 ha       436 PET      0.145907
   9587 HA4        23.4700    5.1900   61.1100 ha       436 PET      0.145907
   9588 HA5        25.8300    5.2700   61.2200 ha       436 PET      0.129090
   9589 H31        29.7900    4.1900   63.5100 h1       436 PET      0.097188
   9590 H32        29.6400    3.5500   65.1900 h1       436 PET      0.097188
   9591 H41        29.7600    1.8500   62.6500 h1       436 PET      0.097188
   9592 H42        29.6500    1.2000   64.4200 h1       436 PET      0.097188
   9593 C1         32.1900    0.9100   63.7100 c        437 PET      0.825469
   9594 CA1        33.6200    1.3000   63.5000 ca       437 PET     -0.163574
   9595 CA2        34.7300    0.4500   63.1900 ca       437 PET     -0.108363
   9596 CA3        36.0300    0.9000   62.8900 ca       437 PET     -0.078542
   9597 CA4        33.9300    2.6800   63.6000 ca       437 PET     -0.078542
   9598 CA5        35.2800    3.1600   63.3800 ca       437 PET     -0.108363
   9599 CA6        36.3100    2.2900   63.0400 ca       437 PET     -0.163574
   9600 C2         37.7500    2.8500   62.8000 c        437 PET      0.825469
   9601 C3         39.0900    4.8800   62.6300 c3       437 PET      0.058627
   9602 C4         39.3200    4.7700   61.1000 c3       437 PET      0.058627
   9603 O1         31.3500    2.0600   63.9000 os       437 PET     -0.411922
   9604 O2         31.7400   -0.2000   63.5400 o        437 PET     -0.591068
   9605 O3         38.7400    2.1500   62.5900 o        437 PET     -0.591068
   9606 O4         37.8400    4.1900   63.0100 os       437 PET     -0.411922
   9607 HA2        34.5400   -0.6100   63.0900 ha       437 PET      0.129090
   9608 HA3        36.8000    0.2700   62.4600 ha       437 PET      0.145907
   9609 HA4        33.1500    3.4200   63.7200 ha       437 PET      0.145907
   9610 HA5        35.4200    4.2400   63.3800 ha       437 PET      0.129090
   9611 H31        39.0500    5.9000   63.0300 h1       437 PET      0.097188
   9612 H32        39.9300    4.4300   63.1700 h1       437 PET      0.097188
   9613 H41        39.4600    5.7400   60.6100 h1       437 PET      0.097188
   9614 H42        38.4100    4.4000   60.6100 h1       437 PET      0.097188
   9615 C1         40.5700   83.6100   59.4700 c        438 PET      0.825469
   9616 CA1        41.9300   83.0600   59.2300 ca       438 PET     -0.163574
   9617 CA2        42.5900   82.3200   60.2000 ca       438 PET     -0.108363
   9618 CA3        43.8000   81.8100   59.9600 ca       438 PET     -0.078542
   9619 CA4        42.4500   83.1600   57.9000 ca       438 PET     -0.078542
   9620 CA5        43.7500   82.6900   57.6800 ca       438 PET     -0.108363
   9621 CA6        44.4200   82.0300   58.7300 ca       438 PET     -0.163574
   9622 C2         45.8400   81.5300   58.4600 c        438 PET      0.825469
   9623 C3         47.7800   80.4300   59.4900 c3       438 PET      0.058627
   9624 C4         48.1800   80.5600   60.9700 c3       438 PET      0.058627
   9625 O1         40.4500   83.9200   60.7700 os       438 PET     -0.411922
   9626 O2         39.7000   83.8200   58.6000 o        438 PET     -0.591068
   9627 O3         46.5400   81.8400   57.5100 o        438 PET     -0.591068
   9628 O4         46.4000   80.8600   59.4700 os       438 PET     -0.411922
   9629 HA2        42.0000   82.0900   61.0800 ha       438 PET      0.129090
   9630 HA3        44.3300   81.3100   60.7700 ha       438 PET      0.145907
   9631 HA4        41.8800   83.7300   57.1700 ha       438 PET      0.145907
   9632 HA5        44.2200   82.9400   56.7300 ha       438 PET      0.129090
   9633 H31        47.9200   79.4300   59.0700 h1       438 PET      0.097188
   9634 H32        48.5200   81.0900   59.0300 h1       438 PET      0.097188
   9635 H41        47.6400   79.7900   61.5300 h1       438 PET      0.097188
   9636 H42        47.9900   81.6000   61.2400 h1       438 PET      0.097188
   9637 C1         50.0700   78.9700   61.3300 c        439 PET      0.825469
   9638 CA1        51.5300   79.0300   61.6400 ca       439 PET     -0.163574
   9639 CA2        52.0300   80.0800   62.5000 ca       439 PET     -0.108363
   9640 CA3        53.4300   80.2300   62.7200 ca       439 PET     -0.078542
   9641 CA4        52.4300   78.1000   61.1900 ca       439 PET     -0.078542
   9642 CA5        53.7900   78.2100   61.5600 ca       439 PET     -0.108363
   9643 CA6        54.3200   79.3600   62.1700 ca       439 PET     -0.163574
   9644 C2         55.7600   79.6000   62.1200 c        439 PET      0.825469
   9645 C3         57.8600   79.0100   61.0700 c3       439 PET      0.058627
   9646 C4         58.7800   78.4600   62.2000 c3       439 PET      0.058627
   9647 O1         49.5900   80.2900   61.1600 os       439 PET     -0.411922
   9648 O2         49.4500   78.0100   61.1400 o        439 PET     -0.591068
   9649 O3         56.2900   80.5500   62.7400 o        439 PET     -0.591068
   9650 O4         56.4600   78.6900   61.3600 os       439 PET     -0.411922
   9651 HA2        51.3600   80.8800   62.7900 ha       439 PET      0.129090
   9652 HA3        53.8100   81.0500   63.3200 ha       439 PET      0.145907
   9653 HA4        52.0900   77.2200   60.6500 ha       439 PET      0.145907
   9654 HA5        54.4600   77.4300   61.2200 ha       439 PET      0.129090
   9655 H31        58.0700   78.5600   60.0900 h1       439 PET      0.097188
   9656 H32        58.0200   80.0900   61.0200 h1       439 PET      0.097188
   9657 H41        58.7400   77.3600   62.2500 h1       439 PET      0.097188
   9658 H42        58.4300   78.9000   63.1500 h1       439 PET      0.097188
   9659 C1         60.8300   78.5400   60.8600 c        440 PET      0.825469
   9660 CA1        62.2400   79.0100   60.8300 ca       440 PET     -0.163574
   9661 CA2        62.9600   79.2200   62.0600 ca       440 PET     -0.108363
   9662 CA3        64.3600   79.3500   62.0600 ca       440 PET     -0.078542
   9663 CA4        62.9700   79.1000   59.5600 ca       440 PET     -0.078542
   9664 CA5        64.3800   79.1000   59.5600 ca       440 PET     -0.108363
   9665 CA6        65.0100   79.2400   60.7900 ca       440 PET     -0.163574
   9666 C2         66.4300   79.3100   60.8300 c        440 PET      0.825469
   9667 C3         68.4900   80.1900   59.7600 c3       440 PET      0.058627
   9668 C4         68.8000   81.3700   58.8700 c3       440 PET      0.058627
   9669 O1         60.1700   78.8700   61.9700 os       440 PET     -0.411922
   9670 O2         60.3500   77.9300   59.9000 o        440 PET     -0.591068
   9671 O3         67.1000   78.8400   61.7400 o        440 PET     -0.591068
   9672 O4         67.0100   80.0000   59.8000 os       440 PET     -0.411922
   9673 HA2        62.4800   79.1200   63.0300 ha       440 PET      0.129090
   9674 HA3        64.8700   79.3200   63.0100 ha       440 PET      0.145907
   9675 HA4        62.5000   78.9200   58.6000 ha       440 PET      0.145907
   9676 HA5        64.8900   79.1800   58.6000 ha       440 PET      0.129090
   9677 H31        68.7900   80.2700   60.8200 h1       440 PET      0.097188
   9678 H32        68.9300   79.2500   59.4100 h1       440 PET      0.097188
   9679 H41        67.9000   81.9600   58.6300 h1       440 PET      0.097188
   9680 H42        69.2300   80.9400   57.9600 h1       440 PET      0.097188
   9681 C1         71.0400    1.7900   59.9700 c        441 PET      0.825469
   9682 CA1        71.9400    2.8100   60.6100 ca       441 PET     -0.163574
   9683 CA2        73.3500    2.5000   60.5700 ca       441 PET     -0.108363
   9684 CA3        74.2700    3.4000   61.1500 ca       441 PET     -0.078542
   9685 CA4        71.4300    3.8900   61.3400 ca       441 PET     -0.078542
   9686 CA5        72.3500    4.7600   61.8900 ca       441 PET     -0.108363
   9687 CA6        73.7000    4.5500   61.8400 ca       441 PET     -0.163574
   9688 C2         74.5400    5.6100   62.4900 c        441 PET      0.825469
   9689 C3         76.7300    6.4300   62.5700 c3       441 PET      0.058627
   9690 C4         77.5200    6.0000   63.8600 c3       441 PET      0.058627
   9691 O1         69.7700    2.2400   59.6100 os       441 PET     -0.411922
   9692 O2         71.4200    0.6600   59.6700 o        441 PET     -0.591068
   9693 O3         74.1800    6.5200   63.1900 o        441 PET     -0.591068
   9694 O4         75.8200    5.4300   62.1600 os       441 PET     -0.411922
   9695 HA2        73.7100    1.6100   60.0700 ha       441 PET      0.129090
   9696 HA3        75.3100    3.1200   61.2400 ha       441 PET      0.145907
   9697 HA4        70.3600    4.0500   61.4400 ha       441 PET      0.145907
   9698 HA5        71.8500    5.6200   62.3100 ha       441 PET      0.129090
   9699 H31        77.5000    6.4500   61.8000 h1       441 PET      0.097188
   9700 H32        76.2000    7.3800   62.6900 h1       441 PET      0.097188
   9701 H41        77.4400    4.9200   64.0600 h1       441 PET      0.097188
   9702 H42        77.0900    6.4900   64.7400 h1       441 PET      0.097188
   9703 C1         -0.2700    6.0000   64.5600 c        442 PET      0.825469
   9704 CA1         1.1500    6.1500   64.1000 ca       442 PET     -0.163574
   9705 CA2         1.4300    7.0300   62.9900 ca       442 PET     -0.108363
   9706 CA3         2.6600    7.2700   62.5300 ca       442 PET     -0.078542
   9707 CA4         2.2600    5.4500   64.6200 ca       442 PET     -0.078542
   9708 CA5         3.5200    5.6000   64.0200 ca       442 PET     -0.108363
   9709 CA6         3.7400    6.6800   63.0900 ca       442 PET     -0.163574
   9710 C2          5.0800    6.8100   62.5300 c        442 PET      0.825469
   9711 C3          6.5500    8.4300   61.3500 c3       442 PET      0.058627
   9712 C4          7.4100    9.1500   62.4600 c3       442 PET      0.058627
   9713 O1         -1.1200    6.3700   63.6600 os       442 PET     -0.411922
   9714 O2         -0.5700    5.5100   65.6600 o        442 PET     -0.591068
   9715 O3          5.9600    5.9600   62.5500 o        442 PET     -0.591068
   9716 O4          5.2400    8.0900   61.9900 os       442 PET     -0.411922
   9717 HA2         0.6000    7.5700   62.5500 ha       442 PET      0.129090
   9718 HA3         2.7800    7.9400   61.6800 ha       442 PET      0.145907
   9719 HA4         2.1300    4.7400   65.4400 ha       442 PET      0.145907
   9720 HA5         4.3100    4.9200   64.3200 ha       442 PET      0.129090
   9721 H31         7.0500    7.5400   60.9400 h1       442 PET      0.097188
   9722 H32         6.3500    9.0700   60.4800 h1       442 PET      0.097188
   9723 H41         7.3600    8.6200   63.4300 h1       442 PET      0.097188
   9724 H42         7.0300   10.1600   62.6800 h1       442 PET      0.097188
   9725 C1          9.7400    9.7400   62.6000 c        443 PET      0.825469
   9726 CA1        11.1200    9.5800   61.9200 ca       443 PET     -0.163574
   9727 CA2        12.1600   10.4000   62.3800 ca       443 PET     -0.108363
   9728 CA3        13.3700   10.4000   61.7000 ca       443 PET     -0.078542
   9729 CA4        11.3100    8.6800   60.7800 ca       443 PET     -0.078542
   9730 CA5        12.6000    8.5900   60.3000 ca       443 PET     -0.108363
   9731 CA6        13.6600    9.4400   60.7100 ca       443 PET     -0.163574
   9732 C2         15.0400    9.4400   60.0500 c        443 PET      0.825469
   9733 C3         16.8800   11.0500   59.6500 c3       443 PET      0.058627
   9734 C4         17.8200   10.1700   60.5400 c3       443 PET      0.058627
   9735 O1          8.7100    9.0600   61.8600 os       443 PET     -0.411922
   9736 O2          9.5500   10.4600   63.6000 o        443 PET     -0.591068
   9737 O3         15.5600    8.4400   59.6200 o        443 PET     -0.591068
   9738 O4         15.5400   10.7400   60.0400 os       443 PET     -0.411922
   9739 HA2        11.9200   11.1000   63.1800 ha       443 PET      0.129090
   9740 HA3        14.1800   11.0800   61.9600 ha       443 PET      0.145907
   9741 HA4        10.4800    8.0700   60.4700 ha       443 PET      0.145907
   9742 HA5        12.9000    7.8200   59.6100 ha       443 PET      0.129090
   9743 H31        17.0200   10.7900   58.6000 h1       443 PET      0.097188
   9744 H32        17.0700   12.1200   59.7600 h1       443 PET      0.097188
   9745 H41        17.6800    9.0800   60.5400 h1       443 PET      0.097188
   9746 H42        17.5100   10.4200   61.5600 h1       443 PET      0.097188
   9747 C1         20.0100   10.7300   61.3000 c        444 PET      0.825469
   9748 CA1        21.3300   11.2000   60.8900 ca       444 PET     -0.163574
   9749 CA2        21.9400   10.5900   59.7900 ca       444 PET     -0.108363
   9750 CA3        23.2900   10.8000   59.5600 ca       444 PET     -0.078542
   9751 CA4        22.0300   12.1100   61.7100 ca       444 PET     -0.078542
   9752 CA5        23.3400   12.3800   61.3900 ca       444 PET     -0.108363
   9753 CA6        24.0600   11.6200   60.4000 ca       444 PET     -0.163574
   9754 C2         25.5800   11.8400   60.2600 c        444 PET      0.825469
   9755 C3         27.4600   11.7700   58.6300 c3       444 PET      0.058627
   9756 C4         27.5300   11.6100   57.1300 c3       444 PET      0.058627
   9757 O1         19.1700   10.5600   60.2700 os       444 PET     -0.411922
   9758 O2         19.7200   10.6200   62.4900 o        444 PET     -0.591068
   9759 O3         26.3100   12.2200   61.1900 o        444 PET     -0.591068
   9760 O4         26.0900   11.4500   59.0100 os       444 PET     -0.411922
   9761 HA2        21.3700    9.8100   59.3000 ha       444 PET      0.129090
   9762 HA3        23.7200   10.2300   58.7400 ha       444 PET      0.145907
   9763 HA4        21.5600   12.5800   62.5700 ha       444 PET      0.145907
   9764 HA5        23.8600   13.1000   62.0100 ha       444 PET      0.129090
   9765 H31        27.6800   12.8300   58.8200 h1       444 PET      0.097188
   9766 H32        28.2200   11.1200   59.1000 h1       444 PET      0.097188
   9767 H41        26.9600   12.4700   56.7600 h1       444 PET      0.097188
   9768 H42        27.0500   10.6800   56.7900 h1       444 PET      0.097188
   9769 C1         29.0800   11.8600   55.3600 c        445 PET      0.825469
   9770 CA1        30.5000   12.1500   54.9200 ca       445 PET     -0.163574
   9771 CA2        30.8600   12.2900   53.5500 ca       445 PET     -0.108363
   9772 CA3        32.1700   12.7200   53.2600 ca       445 PET     -0.078542
   9773 CA4        31.5100   12.2500   56.0100 ca       445 PET     -0.078542
   9774 CA5        32.8000   12.6000   55.6700 ca       445 PET     -0.108363
   9775 CA6        33.1400   12.8600   54.3500 ca       445 PET     -0.163574
   9776 C2         34.5600   13.2000   53.9500 c        445 PET      0.825469
   9777 C3         36.8700   13.0000   54.7800 c3       445 PET      0.058627
   9778 C4         37.3500   11.9000   53.8600 c3       445 PET      0.058627
   9779 O1         28.8200   11.7500   56.6900 os       445 PET     -0.411922
   9780 O2         28.2200   11.7900   54.5100 o        445 PET     -0.591068
   9781 O3         34.8800   13.6300   52.8800 o        445 PET     -0.591068
   9782 O4         35.4900   12.7900   54.9300 os       445 PET     -0.411922
   9783 HA2        30.1300   12.2000   52.7600 ha       445 PET      0.129090
   9784 HA3        32.4400   13.0000   52.2500 ha       445 PET      0.145907
   9785 HA4        31.2300   12.3400   57.0500 ha       445 PET      0.145907
   9786 HA5        33.5500   12.8200   56.4200 ha       445 PET      0.129090
   9787 H31        37.1700   13.9600   54.3300 h1       445 PET      0.097188
   9788 H32        37.3900   12.8400   55.7300 h1       445 PET      0.097188
   9789 H41        37.0900   12.1900   52.8300 h1       445 PET      0.097188
   9790 H42        36.8900   10.9500   54.1600 h1       445 PET      0.097188
   9791 C1         39.4900   11.3400   54.9200 c        446 PET      0.825469
   9792 CA1        40.9200   11.5900   54.8900 ca       446 PET     -0.163574
   9793 CA2        41.5300   11.8100   53.6600 ca       446 PET     -0.108363
   9794 CA3        42.9200   12.0900   53.6900 ca       446 PET     -0.078542
   9795 CA4        41.6500   11.5100   56.1000 ca       446 PET     -0.078542
   9796 CA5        43.0900   11.7100   56.0800 ca       446 PET     -0.108363
   9797 CA6        43.7400   12.0600   54.8800 ca       446 PET     -0.163574
   9798 C2         45.2100   12.3700   54.8000 c        446 PET      0.825469
   9799 C3         47.3400   11.7100   55.7700 c3       446 PET      0.058627
   9800 C4         47.6400   10.7100   54.7100 c3       446 PET      0.058627
   9801 O1         38.8300   11.7500   53.8800 os       446 PET     -0.411922
   9802 O2         38.9100   10.9100   55.8900 o        446 PET     -0.591068
   9803 O3         45.7400   13.0200   53.9100 o        446 PET     -0.591068
   9804 O4         45.9000   11.8600   55.8700 os       446 PET     -0.411922
   9805 HA2        40.9400   11.7100   52.7600 ha       446 PET      0.129090
   9806 HA3        43.4200   12.1900   52.7300 ha       446 PET      0.145907
   9807 HA4        41.0500   11.3400   56.9900 ha       446 PET      0.145907
   9808 HA5        43.7000   11.7300   56.9800 ha       446 PET      0.129090
   9809 H31        47.7400   12.6800   55.4800 h1       446 PET      0.097188
   9810 H32        47.8200   11.3600   56.6900 h1       446 PET      0.097188
   9811 H41        47.8400   11.1100   53.7100 h1       446 PET      0.097188
   9812 H42        46.8200   10.0000   54.5200 h1       446 PET      0.097188
   9813 C1         50.0600   10.4700   55.3100 c        447 PET      0.825469
   9814 CA1        51.2300    9.4300   55.3800 ca       447 PET     -0.163574
   9815 CA2        50.9900    8.1000   55.2400 ca       447 PET     -0.108363
   9816 CA3        52.0200    7.1800   55.2500 ca       447 PET     -0.078542
   9817 CA4        52.5400    9.8600   55.6600 ca       447 PET     -0.078542
   9818 CA5        53.5600    8.9600   55.8500 ca       447 PET     -0.108363
   9819 CA6        53.3400    7.6200   55.5200 ca       447 PET     -0.163574
   9820 C2         54.5400    6.7100   55.4800 c        447 PET      0.825469
   9821 C3         56.8900    6.4600   56.0700 c3       447 PET      0.058627
   9822 C4         56.7400    5.5600   57.3300 c3       447 PET      0.058627
   9823 O1         48.8400    9.8900   55.1000 os       447 PET     -0.411922
   9824 O2         50.2700   11.6600   55.4600 o        447 PET     -0.591068
   9825 O3         54.4200    5.5300   55.1700 o        447 PET     -0.591068
   9826 O4         55.7000    7.2900   55.9000 os       447 PET     -0.411922
   9827 HA2        50.0200    7.7000   54.9300 ha       447 PET      0.129090
   9828 HA3        51.7800    6.1900   54.8500 ha       447 PET      0.145907
   9829 HA4        52.8200   10.8900   55.8400 ha       447 PET      0.145907
   9830 HA5        54.5600    9.2900   56.1200 ha       447 PET      0.129090
   9831 H31        57.0400    5.9400   55.1200 h1       447 PET      0.097188
   9832 H32        57.7800    7.0700   56.2500 h1       447 PET      0.097188
   9833 H41        57.6100    5.7200   57.9800 h1       447 PET      0.097188
   9834 H42        56.6900    4.4900   57.1000 h1       447 PET      0.097188
   9835 C1         55.3900    6.9900   58.6800 c        448 PET      0.825469
   9836 CA1        53.9800    7.5100   58.8300 ca       448 PET     -0.163574
   9837 CA2        52.8800    6.7300   58.4200 ca       448 PET     -0.108363
   9838 CA3        51.6000    7.3100   58.4600 ca       448 PET     -0.078542
   9839 CA4        53.8200    8.8700   59.1600 ca       448 PET     -0.078542
   9840 CA5        52.5700    9.4800   59.1600 ca       448 PET     -0.108363
   9841 CA6        51.4400    8.6900   58.9500 ca       448 PET     -0.163574
   9842 C2         50.0400    9.2400   59.0900 c        448 PET      0.825469
   9843 C3         48.5400   11.1100   59.2800 c3       448 PET      0.058627
   9844 C4         48.6300   12.5900   59.0300 c3       448 PET      0.058627
   9845 O1         55.5300    5.8300   58.0700 os       448 PET     -0.411922
   9846 O2         56.3600    7.6300   59.0200 o        448 PET     -0.591068
   9847 O3         49.0900    8.4500   59.2000 o        448 PET     -0.591068
   9848 O4         49.8900   10.6400   59.0500 os       448 PET     -0.411922
   9849 HA2        52.9700    5.7000   58.0800 ha       448 PET      0.129090
   9850 HA3        50.8000    6.6500   58.1600 ha       448 PET      0.145907
   9851 HA4        54.7000    9.5000   59.2700 ha       448 PET      0.145907
   9852 HA5        52.4500   10.5100   59.4700 ha       448 PET      0.129090
   9853 H31        47.8700   10.6000   58.5700 h1       448 PET      0.097188
   9854 H32        48.2000   10.9300   60.3100 h1       448 PET      0.097188
   9855 H41        49.3600   12.7500   58.2300 h1       448 PET      0.097188
   9856 H42        49.0700   13.0900   59.9100 h1       448 PET      0.097188
   9857 C1         46.2600   13.2200   59.3500 c        449 PET      0.825469
   9858 CA1        45.0400   13.8700   58.6400 ca       449 PET     -0.163574
   9859 CA2        43.7700   13.6100   59.1600 ca       449 PET     -0.108363
   9860 CA3        42.6100   14.1100   58.5100 ca       449 PET     -0.078542
   9861 CA4        45.1800   14.6900   57.4600 ca       449 PET     -0.078542
   9862 CA5        44.0000   15.2600   56.9400 ca       449 PET     -0.108363
   9863 CA6        42.7200   14.9400   57.3600 ca       449 PET     -0.163574
   9864 C2         41.5300   15.5500   56.7600 c        449 PET      0.825469
   9865 C3         39.0400   15.0300   56.7100 c3       449 PET      0.058627
   9866 C4         38.6200   16.3800   57.4100 c3       449 PET      0.058627
   9867 O1         47.4200   13.2600   58.6000 os       449 PET     -0.411922
   9868 O2         46.0800   12.5800   60.3900 o        449 PET     -0.591068
   9869 O3         41.5700   16.5400   56.0400 o        449 PET     -0.591068
   9870 O4         40.4500   14.7700   56.9800 os       449 PET     -0.411922
   9871 HA2        43.5800   12.9100   59.9600 ha       449 PET      0.129090
   9872 HA3        41.6300   13.8300   58.8900 ha       449 PET      0.145907
   9873 HA4        46.1500   14.9400   57.0300 ha       449 PET      0.145907
   9874 HA5        44.0900   15.9500   56.1100 ha       449 PET      0.129090
   9875 H31        38.9700   15.0200   55.6200 h1       449 PET      0.097188
   9876 H32        38.4500   14.2200   57.1600 h1       449 PET      0.097188
   9877 H41        38.9900   17.2600   56.8700 h1       449 PET      0.097188
   9878 H42        39.1000   16.3900   58.4000 h1       449 PET      0.097188
   9879 C1         36.4900   16.4800   56.4900 c        450 PET      0.825469
   9880 CA1        35.1600   16.1500   56.6800 ca       450 PET     -0.163574
   9881 CA2        34.6200   15.6600   57.9500 ca       450 PET     -0.108363
   9882 CA3        33.2000   15.3900   58.0500 ca       450 PET     -0.078542
   9883 CA4        34.2500   16.3700   55.6000 ca       450 PET     -0.078542
   9884 CA5        32.8900   16.0400   55.7500 ca       450 PET     -0.108363
   9885 CA6        32.3800   15.6500   56.9600 ca       450 PET     -0.163574
   9886 C2         30.9000   15.4800   57.1500 c        450 PET      0.825469
   9887 C3         28.9600   15.4400   58.5600 c3       450 PET      0.058627
   9888 C4         28.0900   16.4800   57.8800 c3       450 PET      0.058627
   9889 O1         37.1800   16.4500   57.6100 os       450 PET     -0.411922
   9890 O2         36.8900   16.7700   55.3600 o        450 PET     -0.591068
   9891 O3         30.2000   15.2400   56.1700 o        450 PET     -0.591068
   9892 O4         30.3700   15.6200   58.4100 os       450 PET     -0.411922
   9893 HA2        35.2600   15.5700   58.8300 ha       450 PET      0.129090
   9894 HA3        32.8100   15.1000   59.0200 ha       450 PET      0.145907
   9895 HA4        34.6400   16.7800   54.6700 ha       450 PET      0.145907
   9896 HA5        32.2100   16.1900   54.9200 ha       450 PET      0.129090
   9897 H31        28.7700   14.4800   58.0500 h1       450 PET      0.097188
   9898 H32        28.6600   15.3200   59.6100 h1       450 PET      0.097188
   9899 H41        27.5300   16.1100   57.0100 h1       450 PET      0.097188
   9900 H42        27.3200   16.8300   58.5800 h1       450 PET      0.097188
   9901 C1         40.8100   52.1800   67.1900 c        451 PET      0.825469
   9902 CA1        42.2800   51.9500   67.3300 ca       451 PET     -0.163574
   9903 CA2        42.7800   51.4900   68.5200 ca       451 PET     -0.108363
   9904 CA3        44.1300   51.1300   68.6500 ca       451 PET     -0.078542
   9905 CA4        43.1000   52.1900   66.2600 ca       451 PET     -0.078542
   9906 CA5        44.4800   51.8300   66.3100 ca       451 PET     -0.108363
   9907 CA6        44.9500   51.2300   67.4900 ca       451 PET     -0.163574
   9908 C2         46.3200   50.7800   67.5300 c        451 PET      0.825469
   9909 C3         47.7000   48.9800   68.4800 c3       451 PET      0.058627
   9910 C4         48.0500   48.2700   67.1500 c3       451 PET      0.058627
   9911 O1         40.3100   52.1200   65.9100 os       451 PET     -0.411922
   9912 O2         40.0800   52.6300   68.1300 o        451 PET     -0.591068
   9913 O3         47.2800   51.3400   66.9400 o        451 PET     -0.591068
   9914 O4         46.4000   49.6700   68.4300 os       451 PET     -0.411922
   9915 HA2        42.1100   51.2800   69.3400 ha       451 PET      0.129090
   9916 HA3        44.4500   50.6300   69.5600 ha       451 PET      0.145907
   9917 HA4        42.6600   52.6400   65.3700 ha       451 PET      0.145907
   9918 HA5        45.1200   51.8100   65.4300 ha       451 PET      0.129090
   9919 H31        48.4500   49.7600   68.6700 h1       451 PET      0.097188
   9920 H32        47.7500   48.1700   69.2200 h1       451 PET      0.097188
   9921 H41        48.4100   48.9700   66.3900 h1       451 PET      0.097188
   9922 H42        47.1300   47.7600   66.8200 h1       451 PET      0.097188
   9923 C1         49.6200   46.6100   66.4400 c        452 PET      0.825469
   9924 CA1        50.9200   45.9200   66.7400 ca       452 PET     -0.163574
   9925 CA2        51.7200   45.3700   65.7100 ca       452 PET     -0.108363
   9926 CA3        52.9200   44.7700   66.0200 ca       452 PET     -0.078542
   9927 CA4        51.4000   45.8900   68.0700 ca       452 PET     -0.078542
   9928 CA5        52.7200   45.3500   68.3600 ca       452 PET     -0.108363
   9929 CA6        53.4500   44.7800   67.3400 ca       452 PET     -0.163574
   9930 C2         54.8300   44.1500   67.6900 c        452 PET      0.825469
   9931 C3         56.7500   43.0800   66.6200 c3       452 PET      0.058627
   9932 C4         57.8700   43.7500   67.3900 c3       452 PET      0.058627
   9933 O1         49.1200   47.3300   67.4300 os       452 PET     -0.411922
   9934 O2         49.1200   46.5500   65.3600 o        452 PET     -0.591068
   9935 O3         55.1400   43.9200   68.8300 o        452 PET     -0.591068
   9936 O4         55.5800   43.9300   66.5800 os       452 PET     -0.411922
   9937 HA2        51.4700   45.4700   64.6500 ha       452 PET      0.129090
   9938 HA3        53.5600   44.4000   65.2200 ha       452 PET      0.145907
   9939 HA4        50.7700   46.2600   68.8700 ha       452 PET      0.145907
   9940 HA5        53.1000   45.4900   69.3700 ha       452 PET      0.129090
   9941 H31        56.5500   42.2100   67.2600 h1       452 PET      0.097188
   9942 H32        57.0500   42.6800   65.6500 h1       452 PET      0.097188
   9943 H41        58.1000   43.1500   68.2800 h1       452 PET      0.097188
   9944 H42        57.5600   44.7400   67.7400 h1       452 PET      0.097188
   9945 C1         59.9200   42.8600   66.2100 c        453 PET      0.825469
   9946 CA1        61.2700   43.4000   65.7600 ca       453 PET     -0.163574
   9947 CA2        61.4700   44.7600   65.6800 ca       453 PET     -0.108363
   9948 CA3        62.7300   45.3000   65.4700 ca       453 PET     -0.078542
   9949 CA4        62.3800   42.5500   65.7100 ca       453 PET     -0.078542
   9950 CA5        63.7200   43.0700   65.5600 ca       453 PET     -0.108363
   9951 CA6        63.8900   44.4900   65.3600 ca       453 PET     -0.163574
   9952 C2         65.2200   45.1800   65.4200 c        453 PET      0.825469
   9953 C3         67.4500   44.8000   64.7100 c3       453 PET      0.058627
   9954 C4         68.2600   45.7900   65.5900 c3       453 PET      0.058627
   9955 O1         59.0800   43.8900   66.6200 os       453 PET     -0.411922
   9956 O2         59.6900   41.6600   66.3800 o        453 PET     -0.591068
   9957 O3         65.3900   46.4000   65.2600 o        453 PET     -0.591068
   9958 O4         66.2500   44.3400   65.3300 os       453 PET     -0.411922
   9959 HA2        60.6300   45.4500   65.7200 ha       453 PET      0.129090
   9960 HA3        62.9100   46.3600   65.3900 ha       453 PET      0.145907
   9961 HA4        62.1900   41.4900   65.8400 ha       453 PET      0.145907
   9962 HA5        64.5800   42.4100   65.5000 ha       453 PET      0.129090
   9963 H31        68.0600   43.9400   64.3900 h1       453 PET      0.097188
   9964 H32        67.2500   45.4500   63.8500 h1       453 PET      0.097188
   9965 H41        67.8000   45.8300   66.5800 h1       453 PET      0.097188
   9966 H42        68.1100   46.8300   65.2700 h1       453 PET      0.097188
   9967 C1         70.4300   45.8100   64.6000 c        454 PET      0.825469
   9968 CA1        71.9000   45.7500   65.0200 ca       454 PET     -0.163574
   9969 CA2        72.7600   46.5600   64.2900 ca       454 PET     -0.108363
   9970 CA3        74.1400   46.4400   64.4400 ca       454 PET     -0.078542
   9971 CA4        72.3900   44.7900   65.9200 ca       454 PET     -0.078542
   9972 CA5        73.8100   44.6700   66.0800 ca       454 PET     -0.108363
   9973 CA6        74.6600   45.4900   65.3200 ca       454 PET     -0.163574
   9974 C2         76.1000   45.3900   65.4100 c        454 PET      0.825469
   9975 C3         77.8800   44.4200   66.7100 c3       454 PET      0.058627
   9976 C4         78.3400   43.1500   66.0300 c3       454 PET      0.058627
   9977 O1         69.6500   45.5100   65.7100 os       454 PET     -0.411922
   9978 O2         70.0200   46.1400   63.5000 o        454 PET     -0.591068
   9979 O3         76.8800   45.9000   64.6300 o        454 PET     -0.591068
   9980 O4         76.4700   44.6700   66.5400 os       454 PET     -0.411922
   9981 HA2        72.3400   47.3200   63.6500 ha       454 PET      0.129090
   9982 HA3        74.7700   47.0100   63.7600 ha       454 PET      0.145907
   9983 HA4        71.7200   44.0200   66.3000 ha       454 PET      0.145907
   9984 HA5        74.2400   43.9600   66.7800 ha       454 PET      0.129090
   9985 H31        78.4200   45.2600   66.2600 h1       454 PET      0.097188
   9986 H32        78.0600   44.3600   67.8000 h1       454 PET      0.097188
   9987 H41        78.0200   43.3000   64.9900 h1       454 PET      0.097188
   9988 H42        77.6400   42.3900   66.4000 h1       454 PET      0.097188
   9989 C1          0.8000   43.3100   65.7400 c        455 PET      0.825469
   9990 CA1         2.1100   42.7600   66.2900 ca       455 PET     -0.163574
   9991 CA2         3.2200   42.7900   65.4300 ca       455 PET     -0.108363
   9992 CA3         4.5100   42.3500   65.8000 ca       455 PET     -0.078542
   9993 CA4         2.1900   42.2800   67.6100 ca       455 PET     -0.078542
   9994 CA5         3.5000   42.0400   68.0300 ca       455 PET     -0.108363
   9995 CA6         4.6200   41.9500   67.1300 ca       455 PET     -0.163574
   9996 C2          5.9800   41.5900   67.7100 c        455 PET      0.825469
   9997 C3          8.1800   40.7700   67.2200 c3       455 PET      0.058627
   9998 C4          9.0600   40.4500   65.9000 c3       455 PET      0.058627
   9999 O1         -0.3200   42.7300   66.3700 os       455 PET     -0.411922
  10000 O2          0.6800   44.0300   64.8200 o        455 PET     -0.591068
  10001 O3          6.1600   41.5000   68.9000 o        455 PET     -0.591068
  10002 O4          6.9700   41.2900   66.7700 os       455 PET     -0.411922
  10003 HA2         3.1800   43.2100   64.4300 ha       455 PET      0.129090
  10004 HA3         5.3800   42.5000   65.1600 ha       455 PET      0.145907
  10005 HA4         1.4000   42.1600   68.3400 ha       455 PET      0.145907
  10006 HA5         3.5900   41.6600   69.0400 ha       455 PET      0.129090
  10007 H31         8.6500   41.5300   67.8500 h1       455 PET      0.097188
  10008 H32         8.0500   39.8700   67.8300 h1       455 PET      0.097188
  10009 H41         8.9300   41.1900   65.1000 h1       455 PET      0.097188
  10010 H42         8.7500   39.5700   65.3400 h1       455 PET      0.097188
  10011 C1         11.4800   40.4400   65.4800 c        456 PET      0.825469
  10012 CA1        12.8700   40.4200   66.1000 ca       456 PET     -0.163574
  10013 CA2        13.1200   40.1300   67.5000 ca       456 PET     -0.108363
  10014 CA3        14.4000   39.9900   67.9000 ca       456 PET     -0.078542
  10015 CA4        14.0400   40.5500   65.2200 ca       456 PET     -0.078542
  10016 CA5        15.3700   40.4000   65.7300 ca       456 PET     -0.108363
  10017 CA6        15.5500   40.0100   67.0600 ca       456 PET     -0.163574
  10018 C2         16.9500   40.0200   67.7100 c        456 PET      0.825469
  10019 C3         19.4700   40.4500   67.3600 c3       456 PET      0.058627
  10020 C4         20.3500   39.5100   66.4500 c3       456 PET      0.058627
  10021 O1         10.4400   40.3000   66.3500 os       456 PET     -0.411922
  10022 O2         11.3300   40.7000   64.3200 o        456 PET     -0.591068
  10023 O3         17.0900   39.7900   68.8900 o        456 PET     -0.591068
  10024 O4         18.0000   40.3800   66.9500 os       456 PET     -0.411922
  10025 HA2        12.3200   39.9100   68.1900 ha       456 PET      0.129090
  10026 HA3        14.5300   39.7800   68.9600 ha       456 PET      0.145907
  10027 HA4        13.9100   40.6900   64.1500 ha       456 PET      0.145907
  10028 HA5        16.2000   40.4600   65.0300 ha       456 PET      0.129090
  10029 H31        19.7900   41.4900   67.2200 h1       456 PET      0.097188
  10030 H32        19.6600   40.2400   68.4200 h1       456 PET      0.097188
  10031 H41        19.8900   39.3900   65.4600 h1       456 PET      0.097188
  10032 H42        20.2900   38.5500   66.9800 h1       456 PET      0.097188
  10033 C1         22.6000   39.6100   67.4700 c        457 PET      0.825469
  10034 CA1        24.0300   39.6600   67.1300 ca       457 PET     -0.163574
  10035 CA2        24.5300   39.9500   65.8800 ca       457 PET     -0.108363
  10036 CA3        25.9300   40.0300   65.6900 ca       457 PET     -0.078542
  10037 CA4        24.9500   39.5600   68.2000 ca       457 PET     -0.078542
  10038 CA5        26.3200   39.4000   67.9800 ca       457 PET     -0.108363
  10039 CA6        26.8600   39.6800   66.7300 ca       457 PET     -0.163574
  10040 C2         28.3400   39.5200   66.4900 c        457 PET      0.825469
  10041 C3         30.4700   39.6000   67.4800 c3       457 PET      0.058627
  10042 C4         31.0500   39.4200   68.9400 c3       457 PET      0.058627
  10043 O1         21.7900   39.8900   66.4000 os       457 PET     -0.411922
  10044 O2         22.1200   39.2800   68.5400 o        457 PET     -0.591068
  10045 O3         28.7900   39.3300   65.3900 o        457 PET     -0.591068
  10046 O4         29.0700   39.7400   67.6300 os       457 PET     -0.411922
  10047 HA2        23.8100   40.2400   65.1100 ha       457 PET      0.129090
  10048 HA3        26.3600   40.3500   64.7400 ha       457 PET      0.145907
  10049 HA4        24.5500   39.4300   69.2000 ha       457 PET      0.145907
  10050 HA5        26.9800   39.1100   68.7900 ha       457 PET      0.129090
  10051 H31        30.7300   38.6500   67.0100 h1       457 PET      0.097188
  10052 H32        30.8900   40.4300   66.9000 h1       457 PET      0.097188
  10053 H41        30.5100   38.6300   69.4900 h1       457 PET      0.097188
  10054 H42        30.7900   40.3000   69.5400 h1       457 PET      0.097188
  10055 C1         33.0600   38.0100   68.8500 c        458 PET      0.825469
  10056 CA1        34.5500   37.9100   68.5300 ca       458 PET     -0.163574
  10057 CA2        35.1500   36.6500   68.4700 ca       458 PET     -0.108363
  10058 CA3        36.5700   36.4800   68.2800 ca       458 PET     -0.078542
  10059 CA4        35.3000   39.0000   68.2100 ca       458 PET     -0.078542
  10060 CA5        36.7200   38.9500   68.0100 ca       458 PET     -0.108363
  10061 CA6        37.3200   37.6500   68.0400 ca       458 PET     -0.163574
  10062 C2         38.7800   37.6000   67.7900 c        458 PET      0.825469
  10063 C3         40.8200   36.4400   68.4100 c3       458 PET      0.058627
  10064 C4         41.2900   35.0100   68.4900 c3       458 PET      0.058627
  10065 O1         32.5200   39.2800   68.8800 os       458 PET     -0.411922
  10066 O2         32.3800   37.0000   68.9600 o        458 PET     -0.591068
  10067 O3         39.4300   38.5500   67.3400 o        458 PET     -0.591068
  10068 O4         39.3700   36.4400   68.1700 os       458 PET     -0.411922
  10069 HA2        34.4900   35.7900   68.6200 ha       458 PET      0.129090
  10070 HA3        37.0400   35.5200   68.4500 ha       458 PET      0.145907
  10071 HA4        34.8900   40.0000   68.1300 ha       458 PET      0.145907
  10072 HA5        37.2400   39.9000   67.9800 ha       458 PET      0.129090
  10073 H31        41.3700   37.0600   67.6900 h1       458 PET      0.097188
  10074 H32        41.1400   36.9000   69.3500 h1       458 PET      0.097188
  10075 H41        40.8400   34.5300   67.6200 h1       458 PET      0.097188
  10076 H42        40.8200   34.4200   69.3000 h1       458 PET      0.097188
  10077 C1         43.4600   33.8600   68.6900 c        459 PET      0.825469
  10078 CA1        44.9300   34.1100   68.6300 ca       459 PET     -0.163574
  10079 CA2        45.8600   33.0800   68.2800 ca       459 PET     -0.108363
  10080 CA3        47.2100   33.3700   68.1000 ca       459 PET     -0.078542
  10081 CA4        45.4600   35.3900   68.7500 ca       459 PET     -0.078542
  10082 CA5        46.8200   35.7000   68.6800 ca       459 PET     -0.108363
  10083 CA6        47.7500   34.6800   68.3800 ca       459 PET     -0.163574
  10084 C2         49.2200   34.8900   68.5300 c        459 PET      0.825469
  10085 C3         51.4600   34.0800   67.9900 c3       459 PET      0.058627
  10086 C4         52.0600   32.7100   67.9400 c3       459 PET      0.058627
  10087 O1         42.6700   34.9900   68.5600 os       459 PET     -0.411922
  10088 O2         43.0000   32.7900   69.0600 o        459 PET     -0.591068
  10089 O3         49.7100   35.9900   68.6600 o        459 PET     -0.591068
  10090 O4         50.0400   33.8400   68.4100 os       459 PET     -0.411922
  10091 HA2        45.4900   32.0800   68.1100 ha       459 PET      0.129090
  10092 HA3        47.9200   32.5600   67.9900 ha       459 PET      0.145907
  10093 HA4        44.8700   36.2600   69.0300 ha       459 PET      0.145907
  10094 HA5        47.1800   36.6600   69.0100 ha       459 PET      0.129090
  10095 H31        51.5300   34.6400   67.0500 h1       459 PET      0.097188
  10096 H32        51.9300   34.7600   68.7200 h1       459 PET      0.097188
  10097 H41        51.9200   32.3400   66.9100 h1       459 PET      0.097188
  10098 H42        51.6500   32.1000   68.7500 h1       459 PET      0.097188
  10099 C1         54.3300   31.8500   67.9100 c        460 PET      0.825469
  10100 CA1        55.7900   32.1300   68.1500 ca       460 PET     -0.163574
  10101 CA2        56.1600   33.4300   68.4800 ca       460 PET     -0.108363
  10102 CA3        57.5200   33.7600   68.6200 ca       460 PET     -0.078542
  10103 CA4        56.7600   31.1400   67.9000 ca       460 PET     -0.078542
  10104 CA5        58.0800   31.4800   68.0700 ca       460 PET     -0.108363
  10105 CA6        58.4700   32.8200   68.4400 ca       460 PET     -0.163574
  10106 C2         59.9200   33.1400   68.5400 c        460 PET      0.825469
  10107 C3         62.1000   32.8000   67.6900 c3       460 PET      0.058627
  10108 C4         62.8100   32.0600   68.8900 c3       460 PET      0.058627
  10109 O1         53.4600   32.9000   68.1800 os       460 PET     -0.411922
  10110 O2         53.9300   30.7800   67.5000 o        460 PET     -0.591068
  10111 O3         60.3300   33.9900   69.3000 o        460 PET     -0.591068
  10112 O4         60.7200   32.3800   67.7100 os       460 PET     -0.411922
  10113 HA2        55.3800   34.1800   68.6100 ha       460 PET      0.129090
  10114 HA3        57.8300   34.7700   68.8800 ha       460 PET      0.145907
  10115 HA4        56.5500   30.1600   67.4800 ha       460 PET      0.145907
  10116 HA5        58.7700   30.7100   67.7500 ha       460 PET      0.129090
  10117 H31        62.6100   32.5800   66.7500 h1       460 PET      0.097188
  10118 H32        62.1500   33.8700   67.9100 h1       460 PET      0.097188
  10119 H41        62.4700   32.5100   69.8300 h1       460 PET      0.097188
  10120 H42        63.8900   32.2500   68.8700 h1       460 PET      0.097188
  10121 C1         63.6500   29.7600   68.6600 c        461 PET      0.825469
  10122 CA1        63.3500   28.3100   68.6100 ca       461 PET     -0.163574
  10123 CA2        62.0100   27.8400   68.5100 ca       461 PET     -0.108363
  10124 CA3        61.8800   26.4300   68.3700 ca       461 PET     -0.078542
  10125 CA4        64.4800   27.4200   68.6700 ca       461 PET     -0.078542
  10126 CA5        64.2700   26.0500   68.5700 ca       461 PET     -0.108363
  10127 CA6        62.9800   25.5400   68.4400 ca       461 PET     -0.163574
  10128 C2         62.7400   24.1000   68.1500 c        461 PET      0.825469
  10129 C3         63.5100   21.9100   68.7700 c3       461 PET      0.058627
  10130 C4         64.0600   21.3800   67.4500 c3       461 PET      0.058627
  10131 O1         62.5900   30.5700   68.8400 os       461 PET     -0.411922
  10132 O2         64.7700   30.2000   68.6600 o        461 PET     -0.591068
  10133 O3         61.9400   23.6800   67.3900 o        461 PET     -0.591068
  10134 O4         63.5900   23.3600   68.8900 os       461 PET     -0.411922
  10135 HA2        61.1800   28.5200   68.3400 ha       461 PET      0.129090
  10136 HA3        60.8900   26.0900   68.1000 ha       461 PET      0.145907
  10137 HA4        65.5300   27.6800   68.7100 ha       461 PET      0.145907
  10138 HA5        65.0900   25.3500   68.7300 ha       461 PET      0.129090
  10139 H31        64.0400   21.5200   69.6500 h1       461 PET      0.097188
  10140 H32        62.4600   21.5800   68.8000 h1       461 PET      0.097188
  10141 H41        63.4600   21.7300   66.6100 h1       461 PET      0.097188
  10142 H42        64.0800   20.2900   67.5400 h1       461 PET      0.097188
  10143 C1         66.3900   21.3200   68.1100 c        462 PET      0.825469
  10144 CA1        67.7700   21.9000   67.8300 ca       462 PET     -0.163574
  10145 CA2        68.1100   22.3700   66.6200 ca       462 PET     -0.108363
  10146 CA3        69.3700   22.9900   66.4300 ca       462 PET     -0.078542
  10147 CA4        68.7200   21.8300   68.9100 ca       462 PET     -0.078542
  10148 CA5        69.8800   22.4700   68.7600 ca       462 PET     -0.108363
  10149 CA6        70.2700   23.0300   67.5200 ca       462 PET     -0.163574
  10150 C2         71.6700   23.6800   67.3500 c        462 PET      0.825469
  10151 C3         73.6200   24.6200   68.5500 c3       462 PET      0.058627
  10152 C4         73.5200   26.1600   68.5000 c3       462 PET      0.058627
  10153 O1         65.4300   21.8300   67.2900 os       462 PET     -0.411922
  10154 O2         66.2300   20.4600   68.9600 o        462 PET     -0.591068
  10155 O3         72.1400   23.9300   66.2600 o        462 PET     -0.591068
  10156 O4         72.3200   23.9900   68.5100 os       462 PET     -0.411922
  10157 HA2        67.4400   22.3400   65.7700 ha       462 PET      0.129090
  10158 HA3        69.5600   23.4700   65.4800 ha       462 PET      0.145907
  10159 HA4        68.5000   21.4200   69.8900 ha       462 PET      0.145907
  10160 HA5        70.5700   22.5300   69.6100 ha       462 PET      0.129090
  10161 H31        74.0700   24.2600   69.4900 h1       462 PET      0.097188
  10162 H32        74.1400   24.3700   67.6200 h1       462 PET      0.097188
  10163 H41        72.8900   26.4000   69.3700 h1       462 PET      0.097188
  10164 H42        73.1800   26.5800   67.5500 h1       462 PET      0.097188
  10165 C1         -4.9000   27.9700   68.9400 c        463 PET      0.825469
  10166 CA1        -3.4300   28.2200   68.9800 ca       463 PET     -0.163574
  10167 CA2        -2.9300   29.4700   69.2500 ca       463 PET     -0.108363
  10168 CA3        -1.5900   29.7500   69.0500 ca       463 PET     -0.078542
  10169 CA4        -2.4200   27.2100   68.6200 ca       463 PET     -0.078542
  10170 CA5        -1.0600   27.4800   68.5100 ca       463 PET     -0.108363
  10171 CA6        -0.5900   28.7900   68.6800 ca       463 PET     -0.163574
  10172 C2          0.8200   29.1400   68.5000 c        463 PET      0.825469
  10173 C3          3.0000   28.6300   67.7800 c3       463 PET      0.058627
  10174 C4          3.5300   28.4500   69.1700 c3       463 PET      0.058627
  10175 O1         -5.1500   26.6300   68.8000 os       463 PET     -0.411922
  10176 O2         -5.7200   28.8600   68.8700 o        463 PET     -0.591068
  10177 O3          1.2100   30.2300   68.9100 o        463 PET     -0.591068
  10178 O4          1.6200   28.2200   67.8100 os       463 PET     -0.411922
  10179 HA2        -3.6000   30.2900   69.4500 ha       463 PET      0.129090
  10180 HA3        -1.3100   30.8000   69.1200 ha       463 PET      0.145907
  10181 HA4        -2.8300   26.2300   68.3800 ha       463 PET      0.145907
  10182 HA5        -0.3800   26.6900   68.2100 ha       463 PET      0.129090
  10183 H31         3.5400   28.0700   67.0000 h1       463 PET      0.097188
  10184 H32         3.1300   29.6800   67.4600 h1       463 PET      0.097188
  10185 H41         2.8000   27.8900   69.7700 h1       463 PET      0.097188
  10186 H42         3.6800   29.3700   69.7500 h1       463 PET      0.097188
  10187 C1          6.0000   28.1800   68.7800 c        464 PET      0.825469
  10188 CA1         7.1000   27.1900   68.8400 ca       464 PET     -0.163574
  10189 CA2         6.9100   25.8200   69.0000 ca       464 PET     -0.108363
  10190 CA3         7.9900   24.9200   68.9600 ca       464 PET     -0.078542
  10191 CA4         8.3500   27.7000   68.7700 ca       464 PET     -0.078542
  10192 CA5         9.5000   26.8200   68.8100 ca       464 PET     -0.108363
  10193 CA6         9.3100   25.4100   68.9000 ca       464 PET     -0.163574
  10194 C2         10.4800   24.4900   68.8600 c        464 PET      0.825469
  10195 C3         12.9100   24.4300   68.5700 c3       464 PET      0.058627
  10196 C4         13.8900   25.5300   68.2800 c3       464 PET      0.058627
  10197 O1          4.7500   27.6500   69.0700 os       464 PET     -0.411922
  10198 O2          6.1800   29.3500   68.5000 o        464 PET     -0.591068
  10199 O3         10.3300   23.2700   69.0500 o        464 PET     -0.591068
  10200 O4         11.6600   25.1600   68.7400 os       464 PET     -0.411922
  10201 HA2         5.9500   25.4000   69.2600 ha       464 PET      0.129090
  10202 HA3         7.8000   23.8700   69.1300 ha       464 PET      0.145907
  10203 HA4         8.4400   28.7800   68.7400 ha       464 PET      0.145907
  10204 HA5        10.5000   27.2300   68.8600 ha       464 PET      0.129090
  10205 H31        12.9700   23.8100   69.4700 h1       464 PET      0.097188
  10206 H32        12.9100   23.7200   67.7400 h1       464 PET      0.097188
  10207 H41        13.9000   26.3200   69.0500 h1       464 PET      0.097188
  10208 H42        13.6800   25.8400   67.2500 h1       464 PET      0.097188
  10209 C1         16.3300   25.5500   67.8800 c        465 PET      0.825469
  10210 CA1        17.6000   24.8700   68.2200 ca       465 PET     -0.163574
  10211 CA2        17.6700   23.4400   68.5300 ca       465 PET     -0.108363
  10212 CA3        18.9300   22.8800   68.6100 ca       465 PET     -0.078542
  10213 CA4        18.8300   25.6100   68.2800 ca       465 PET     -0.078542
  10214 CA5        20.0900   24.9100   68.4700 ca       465 PET     -0.108363
  10215 CA6        20.1400   23.5200   68.6100 ca       465 PET     -0.163574
  10216 C2         21.4300   22.8400   68.7800 c        465 PET      0.825469
  10217 C3         23.7500   22.8500   67.7900 c3       465 PET      0.058627
  10218 C4         24.6600   22.3800   69.0100 c3       465 PET      0.058627
  10219 O1         15.2100   24.8600   68.3700 os       465 PET     -0.411922
  10220 O2         16.2200   26.6700   67.4200 o        465 PET     -0.591068
  10221 O3         21.4800   21.6700   69.2200 o        465 PET     -0.591068
  10222 O4         22.5300   23.5200   68.3000 os       465 PET     -0.411922
  10223 HA2        16.7600   22.8500   68.5900 ha       465 PET      0.129090
  10224 HA3        18.9500   21.8200   68.8600 ha       465 PET      0.145907
  10225 HA4        18.8600   26.6500   67.9700 ha       465 PET      0.145907
  10226 HA5        21.0000   25.4900   68.4100 ha       465 PET      0.129090
  10227 H31        23.5900   22.0200   67.0900 h1       465 PET      0.097188
  10228 H32        24.3000   23.5800   67.1800 h1       465 PET      0.097188
  10229 H41        24.3700   21.3300   69.1800 h1       465 PET      0.097188
  10230 H42        24.4000   22.8600   69.9600 h1       465 PET      0.097188
  10231 C1         26.5800   23.7000   68.5100 c        466 PET      0.825469
  10232 CA1        28.0900   23.7900   68.3300 ca       466 PET     -0.163574
  10233 CA2        28.7200   25.0000   67.9100 ca       466 PET     -0.108363
  10234 CA3        30.1200   25.0200   67.8600 ca       466 PET     -0.078542
  10235 CA4        28.8600   22.6400   68.6800 ca       466 PET     -0.078542
  10236 CA5        30.2500   22.6700   68.4200 ca       466 PET     -0.108363
  10237 CA6        30.8500   23.8100   68.0400 ca       466 PET     -0.163574
  10238 C2         32.3000   23.8100   67.7300 c        466 PET      0.825469
  10239 C3         34.4500   22.9700   68.6100 c3       466 PET      0.058627
  10240 C4         35.0500   22.2800   67.3500 c3       466 PET      0.058627
  10241 O1         26.0400   22.5000   68.7800 os       466 PET     -0.411922
  10242 O2         25.8300   24.6100   68.3300 o        466 PET     -0.591068
  10243 O3         32.8300   24.4000   66.8100 o        466 PET     -0.591068
  10244 O4         33.0000   22.9600   68.5200 os       466 PET     -0.411922
  10245 HA2        28.0900   25.8400   67.6300 ha       466 PET      0.129090
  10246 HA3        30.6100   25.8800   67.4000 ha       466 PET      0.145907
  10247 HA4        28.4000   21.6900   68.9300 ha       466 PET      0.145907
  10248 HA5        30.8400   21.7800   68.6100 ha       466 PET      0.129090
  10249 H31        34.8600   23.9900   68.6500 h1       466 PET      0.097188
  10250 H32        34.7800   22.3100   69.4300 h1       466 PET      0.097188
  10251 H41        34.8100   22.9400   66.5100 h1       466 PET      0.097188
  10252 H42        34.5300   21.3100   67.2600 h1       466 PET      0.097188
  10253 C1         37.2700   22.0600   66.3300 c        467 PET      0.825469
  10254 CA1        38.7500   21.8200   66.5500 ca       467 PET     -0.163574
  10255 CA2        39.2900   21.3500   67.7200 ca       467 PET     -0.108363
  10256 CA3        40.7100   21.2100   67.9000 ca       467 PET     -0.078542
  10257 CA4        39.5800   22.0800   65.4300 ca       467 PET     -0.078542
  10258 CA5        40.9400   21.8400   65.5200 ca       467 PET     -0.108363
  10259 CA6        41.5700   21.4700   66.7900 ca       467 PET     -0.163574
  10260 C2         43.0100   21.0700   66.8400 c        467 PET      0.825469
  10261 C3         44.5800   20.0600   68.3500 c3       467 PET      0.058627
  10262 C4         45.8800   21.0200   68.3600 c3       467 PET      0.058627
  10263 O1         36.4900   22.1300   67.4400 os       467 PET     -0.411922
  10264 O2         36.8200   22.2600   65.1900 o        467 PET     -0.591068
  10265 O3         43.7300   21.0800   65.8300 o        467 PET     -0.591068
  10266 O4         43.3900   20.8900   68.1100 os       467 PET     -0.411922
  10267 HA2        38.5600   21.1700   68.5100 ha       467 PET      0.129090
  10268 HA3        41.1900   21.0100   68.8600 ha       467 PET      0.145907
  10269 HA4        39.1400   22.3300   64.4800 ha       467 PET      0.145907
  10270 HA5        41.6600   21.8600   64.7100 ha       467 PET      0.129090
  10271 H31        44.4800   19.6400   69.3600 h1       467 PET      0.097188
  10272 H32        44.6000   19.2700   67.5900 h1       467 PET      0.097188
  10273 H41        46.6600   20.5000   68.9300 h1       467 PET      0.097188
  10274 H42        45.6700   21.9300   68.9400 h1       467 PET      0.097188
  10275 C1         46.9100   20.4200   66.2300 c        468 PET      0.825469
  10276 CA1        47.4900   21.0900   65.0100 ca       468 PET     -0.163574
  10277 CA2        47.6700   22.4800   64.9200 ca       468 PET     -0.108363
  10278 CA3        48.4600   23.0300   63.8300 ca       468 PET     -0.078542
  10279 CA4        47.9400   20.2600   63.9600 ca       468 PET     -0.078542
  10280 CA5        48.7200   20.8400   62.9500 ca       468 PET     -0.108363
  10281 CA6        49.0300   22.1900   62.8900 ca       468 PET     -0.163574
  10282 C2         50.0400   22.7100   62.0000 c        468 PET      0.825469
  10283 C3         51.4300   24.5500   61.3400 c3       468 PET      0.058627
  10284 C4         51.2900   26.1200   61.0300 c3       468 PET      0.058627
  10285 O1         46.2900   21.3200   67.0400 os       468 PET     -0.411922
  10286 O2         47.0000   19.2500   66.5200 o        468 PET     -0.591068
  10287 O3         50.8600   21.9100   61.4900 o        468 PET     -0.591068
  10288 O4         50.2000   24.0500   61.8600 os       468 PET     -0.411922
  10289 HA2        47.2500   23.1300   65.6700 ha       468 PET      0.129090
  10290 HA3        48.6200   24.1100   63.8200 ha       468 PET      0.145907
  10291 HA4        47.9900   19.1800   64.0500 ha       468 PET      0.145907
  10292 HA5        49.2900   20.1200   62.3700 ha       468 PET      0.129090
  10293 H31        52.2300   24.3900   62.0700 h1       468 PET      0.097188
  10294 H32        51.6900   23.9900   60.4300 h1       468 PET      0.097188
  10295 H41        51.0100   26.7800   61.8700 h1       468 PET      0.097188
  10296 H42        50.4400   26.1700   60.3500 h1       468 PET      0.097188
  10297 C1         53.5200   26.8500   61.4000 c        469 PET      0.825469
  10298 CA1        54.8600   27.2100   60.8000 ca       469 PET     -0.163574
  10299 CA2        55.1800   27.0100   59.4300 ca       469 PET     -0.108363
  10300 CA3        56.4800   26.9800   58.9900 ca       469 PET     -0.078542
  10301 CA4        55.9000   27.4700   61.6800 ca       469 PET     -0.078542
  10302 CA5        57.2100   27.6000   61.1900 ca       469 PET     -0.108363
  10303 CA6        57.5300   27.3400   59.8800 ca       469 PET     -0.163574
  10304 C2         58.9500   27.1900   59.3200 c        469 PET      0.825469
  10305 C3         61.2300   27.2300   59.9200 c3       469 PET      0.058627
  10306 C4         61.9700   27.7900   61.1100 c3       469 PET      0.058627
  10307 O1         52.5100   26.6400   60.5000 os       469 PET     -0.411922
  10308 O2         53.3200   26.8800   62.5800 o        469 PET     -0.591068
  10309 O3         59.2000   26.6300   58.2600 o        469 PET     -0.591068
  10310 O4         59.9100   27.5600   60.2300 os       469 PET     -0.411922
  10311 HA2        54.4000   26.7400   58.7200 ha       469 PET      0.129090
  10312 HA3        56.6800   26.6700   57.9700 ha       469 PET      0.145907
  10313 HA4        55.7300   27.5100   62.7600 ha       469 PET      0.145907
  10314 HA5        58.0300   27.8400   61.8600 ha       469 PET      0.129090
  10315 H31        61.3800   26.1500   59.8700 h1       469 PET      0.097188
  10316 H32        61.5700   27.7500   59.0200 h1       469 PET      0.097188
  10317 H41        61.6800   27.3100   62.0600 h1       469 PET      0.097188
  10318 H42        61.7200   28.8600   61.1500 h1       469 PET      0.097188
  10319 C1         63.9400   26.5600   61.5200 c        470 PET      0.825469
  10320 CA1        65.4300   26.5900   61.6500 ca       470 PET     -0.163574
  10321 CA2        66.0700   27.8400   61.4200 ca       470 PET     -0.108363
  10322 CA3        67.4100   27.9900   61.7600 ca       470 PET     -0.078542
  10323 CA4        66.1500   25.4700   62.0500 ca       470 PET     -0.078542
  10324 CA5        67.5000   25.6200   62.2800 ca       470 PET     -0.108363
  10325 CA6        68.1100   26.8800   62.2400 ca       470 PET     -0.163574
  10326 C2         69.6000   26.9900   62.4900 c        470 PET      0.825469
  10327 C3         71.5200   25.7900   63.2800 c3       470 PET      0.058627
  10328 C4         71.9600   26.9700   64.2500 c3       470 PET      0.058627
  10329 O1         63.4000   27.7100   60.9700 os       470 PET     -0.411922
  10330 O2         63.2800   25.6100   61.8400 o        470 PET     -0.591068
  10331 O3         70.2600   27.8900   61.9900 o        470 PET     -0.591068
  10332 O4         70.0900   25.8700   63.1900 os       470 PET     -0.411922
  10333 HA2        65.5500   28.7000   61.0200 ha       470 PET      0.129090
  10334 HA3        68.0100   28.8700   61.5500 ha       470 PET      0.145907
  10335 HA4        65.6900   24.4900   62.1800 ha       470 PET      0.145907
  10336 HA5        68.1000   24.7300   62.4500 ha       470 PET      0.129090
  10337 H31        71.7800   24.8900   63.8500 h1       470 PET      0.097188
  10338 H32        72.0300   25.7400   62.3200 h1       470 PET      0.097188
  10339 H41        71.2000   27.0800   65.0400 h1       470 PET      0.097188
  10340 H42        72.0500   27.8500   63.6100 h1       470 PET      0.097188
  10341 C1         74.2400   27.4600   64.8500 c        471 PET      0.825469
  10342 CA1        75.5700   26.8400   65.2700 ca       471 PET     -0.163574
  10343 CA2        75.7800   25.4100   65.4200 ca       471 PET     -0.108363
  10344 CA3        77.0200   24.9100   65.6600 ca       471 PET     -0.078542
  10345 CA4        76.7200   27.6500   65.3300 ca       471 PET     -0.078542
  10346 CA5        77.9700   27.1300   65.5200 ca       471 PET     -0.108363
  10347 CA6        78.1700   25.7100   65.6600 ca       471 PET     -0.163574
  10348 C2         79.5400   25.1100   65.5500 c        471 PET      0.825469
  10349 C3         81.8600   25.3700   65.2300 c3       471 PET      0.058627
  10350 C4         82.6100   24.9300   66.5400 c3       471 PET      0.058627
  10351 O1         73.2300   26.5500   64.7600 os       471 PET     -0.411922
  10352 O2         74.1700   28.6500   64.5800 o        471 PET     -0.591068
  10353 O3         79.7000   23.9100   65.6100 o        471 PET     -0.591068
  10354 O4         80.5700   26.0500   65.4500 os       471 PET     -0.411922
  10355 HA2        74.9300   24.7500   65.2900 ha       471 PET      0.129090
  10356 HA3        77.1300   23.8300   65.7000 ha       471 PET      0.145907
  10357 HA4        76.5400   28.6900   65.0700 ha       471 PET      0.145907
  10358 HA5        78.8600   27.7600   65.5700 ha       471 PET      0.129090
  10359 H31        81.7200   24.4600   64.6300 h1       471 PET      0.097188
  10360 H32        82.4600   26.1200   64.7200 h1       471 PET      0.097188
  10361 H41        82.4600   23.8900   66.8500 h1       471 PET      0.097188
  10362 H42        82.2400   25.5800   67.3500 h1       471 PET      0.097188
  10363 C1          4.9000   24.4000   65.7300 c        472 PET      0.825469
  10364 CA1         6.3400   25.0000   65.7600 ca       472 PET     -0.163574
  10365 CA2         7.4300   24.1900   65.7400 ca       472 PET     -0.108363
  10366 CA3         8.7400   24.6400   65.7700 ca       472 PET     -0.078542
  10367 CA4         6.5100   26.4100   65.7900 ca       472 PET     -0.078542
  10368 CA5         7.8000   26.8900   65.6800 ca       472 PET     -0.108363
  10369 CA6         8.9100   25.9900   65.6800 ca       472 PET     -0.163574
  10370 C2         10.3100   26.6000   65.7000 c        472 PET      0.825469
  10371 C3         11.6000   28.6200   65.8400 c3       472 PET      0.058627
  10372 C4         11.5000   30.0800   65.3400 c3       472 PET      0.058627
  10373 O1          4.0400   25.2600   66.4000 os       472 PET     -0.411922
  10374 O2          4.5300   23.4000   65.2000 o        472 PET     -0.591068
  10375 O3         11.2900   25.9000   65.7500 o        472 PET     -0.591068
  10376 O4         10.3200   27.9900   65.7100 os       472 PET     -0.411922
  10377 HA2         7.2800   23.1100   65.8000 ha       472 PET      0.129090
  10378 HA3         9.5600   23.9300   65.8400 ha       472 PET      0.145907
  10379 HA4         5.6900   27.1200   65.8000 ha       472 PET      0.145907
  10380 HA5         7.8900   27.9700   65.6400 ha       472 PET      0.129090
  10381 H31        12.0900   28.5200   66.8200 h1       472 PET      0.097188
  10382 H32        12.3100   28.1300   65.1600 h1       472 PET      0.097188
  10383 H41        10.8000   30.6600   65.9500 h1       472 PET      0.097188
  10384 H42        11.1000   30.0900   64.3200 h1       472 PET      0.097188
  10385 C1         12.9900   32.0300   65.2500 c        473 PET      0.825469
  10386 CA1        14.4400   32.4200   65.0900 ca       473 PET     -0.163574
  10387 CA2        15.4400   31.4600   65.1500 ca       473 PET     -0.108363
  10388 CA3        16.7800   31.8300   64.9500 ca       473 PET     -0.078542
  10389 CA4        14.7900   33.7800   64.8100 ca       473 PET     -0.078542
  10390 CA5        16.1500   34.2000   64.6700 ca       473 PET     -0.108363
  10391 CA6        17.1300   33.2000   64.6700 ca       473 PET     -0.163574
  10392 C2         18.5000   33.4500   64.2900 c        473 PET      0.825469
  10393 C3         20.1000   35.2700   63.8300 c3       473 PET      0.058627
  10394 C4         19.9800   36.7500   63.4100 c3       473 PET      0.058627
  10395 O1         12.8100   30.7100   65.5500 os       473 PET     -0.411922
  10396 O2         12.0700   32.8300   65.1900 o        473 PET     -0.591068
  10397 O3         19.3600   32.6900   64.3700 o        473 PET     -0.591068
  10398 O4         18.7200   34.7700   64.0000 os       473 PET     -0.411922
  10399 HA2        15.1600   30.4200   65.2800 ha       473 PET      0.129090
  10400 HA3        17.5400   31.0500   64.9000 ha       473 PET      0.145907
  10401 HA4        13.9900   34.5000   64.6400 ha       473 PET      0.145907
  10402 HA5        16.4200   35.2400   64.5500 ha       473 PET      0.129090
  10403 H31        20.5800   35.2100   64.8200 h1       473 PET      0.097188
  10404 H32        20.6200   34.6200   63.1100 h1       473 PET      0.097188
  10405 H41        19.4000   37.3200   64.1400 h1       473 PET      0.097188
  10406 H42        19.3500   36.8800   62.5300 h1       473 PET      0.097188
  10407 C1         21.4500   38.5800   62.7600 c        474 PET      0.825469
  10408 CA1        22.9100   39.0800   62.4400 ca       474 PET     -0.163574
  10409 CA2        23.9900   38.3900   63.0100 ca       474 PET     -0.108363
  10410 CA3        25.3100   38.8400   62.7200 ca       474 PET     -0.078542
  10411 CA4        23.1500   40.2600   61.8000 ca       474 PET     -0.078542
  10412 CA5        24.3700   40.8400   61.6300 ca       474 PET     -0.108363
  10413 CA6        25.4800   40.0600   62.0200 ca       474 PET     -0.163574
  10414 C2         26.8600   40.6000   61.8000 c        474 PET      0.825469
  10415 C3         29.1300   40.6700   62.6000 c3       474 PET      0.058627
  10416 C4         29.8700   40.9500   61.1700 c3       474 PET      0.058627
  10417 O1         21.3500   37.3400   63.3100 os       474 PET     -0.411922
  10418 O2         20.4200   39.2500   62.3900 o        474 PET     -0.591068
  10419 O3         27.0300   41.5500   61.0600 o        474 PET     -0.591068
  10420 O4         27.9100   39.9700   62.4500 os       474 PET     -0.411922
  10421 HA2        23.8400   37.5200   63.6500 ha       474 PET      0.129090
  10422 HA3        26.1700   38.3300   63.1400 ha       474 PET      0.145907
  10423 HA4        22.2700   40.8300   61.5000 ha       474 PET      0.145907
  10424 HA5        24.4100   41.8800   61.3400 ha       474 PET      0.129090
  10425 H31        28.8800   41.6400   63.0400 h1       474 PET      0.097188
  10426 H32        29.9100   40.1200   63.1500 h1       474 PET      0.097188
  10427 H41        29.1500   41.3200   60.4400 h1       474 PET      0.097188
  10428 H42        30.1400   39.9600   60.7800 h1       474 PET      0.097188
  10429 C1         30.8900   43.1000   61.4700 c        475 PET      0.825469
  10430 CA1        32.1300   43.9900   61.3200 ca       475 PET     -0.163574
  10431 CA2        31.9200   45.3800   61.1200 ca       475 PET     -0.108363
  10432 CA3        32.9500   46.2200   60.6300 ca       475 PET     -0.078542
  10433 CA4        33.4900   43.4900   61.1800 ca       475 PET     -0.078542
  10434 CA5        34.5300   44.4100   60.9200 ca       475 PET     -0.108363
  10435 CA6        34.2900   45.7700   60.5700 ca       475 PET     -0.163574
  10436 C2         35.3700   46.6400   59.9400 c        475 PET      0.825469
  10437 C3         37.8200   46.8700   59.6800 c3       475 PET      0.058627
  10438 C4         38.0000   48.3300   60.2800 c3       475 PET      0.058627
  10439 O1         31.1200   41.7800   61.3700 os       475 PET     -0.411922
  10440 O2         29.7900   43.5800   61.6400 o        475 PET     -0.591068
  10441 O3         35.0600   47.6200   59.3100 o        475 PET     -0.591068
  10442 O4         36.6200   46.2100   60.1700 os       475 PET     -0.411922
  10443 HA2        30.8700   45.6100   60.9900 ha       475 PET      0.129090
  10444 HA3        32.6000   47.1500   60.1900 ha       475 PET      0.145907
  10445 HA4        33.7800   42.4400   61.2400 ha       475 PET      0.145907
  10446 HA5        35.5400   44.0100   60.8100 ha       475 PET      0.129090
  10447 H31        38.6500   46.1800   59.9000 h1       475 PET      0.097188
  10448 H32        37.8200   47.0100   58.5900 h1       475 PET      0.097188
  10449 H41        37.6000   48.4300   61.2900 h1       475 PET      0.097188
  10450 H42        37.4400   49.0200   59.6300 h1       475 PET      0.097188
  10451 C1         39.7700   49.9200   60.0700 c        476 PET      0.825469
  10452 CA1        41.3000   50.1300   60.1600 ca       476 PET     -0.163574
  10453 CA2        41.8400   51.3400   59.7000 ca       476 PET     -0.108363
  10454 CA3        43.2200   51.5400   59.6300 ca       476 PET     -0.078542
  10455 CA4        42.1200   49.1000   60.5600 ca       476 PET     -0.078542
  10456 CA5        43.5100   49.3500   60.6100 ca       476 PET     -0.108363
  10457 CA6        44.0500   50.5600   60.1100 ca       476 PET     -0.163574
  10458 C2         45.5400   50.8100   60.0800 c        476 PET      0.825469
  10459 C3         47.8000   49.9500   60.7200 c3       476 PET      0.058627
  10460 C4         47.9100   50.2000   62.2200 c3       476 PET      0.058627
  10461 O1         39.3700   48.6300   60.2600 os       476 PET     -0.411922
  10462 O2         39.0500   50.8500   59.7600 o        476 PET     -0.591068
  10463 O3         45.9900   51.8600   59.6800 o        476 PET     -0.591068
  10464 O4         46.3400   49.7400   60.5100 os       476 PET     -0.411922
  10465 HA2        41.1900   52.1500   59.3900 ha       476 PET      0.129090
  10466 HA3        43.5600   52.5000   59.2300 ha       476 PET      0.145907
  10467 HA4        41.6800   48.2200   61.0200 ha       476 PET      0.145907
  10468 HA5        44.1200   48.5600   61.0300 ha       476 PET      0.129090
  10469 H31        48.3800   49.0500   60.5200 h1       476 PET      0.097188
  10470 H32        48.1400   50.8400   60.1700 h1       476 PET      0.097188
  10471 H41        47.1500   49.5500   62.6900 h1       476 PET      0.097188
  10472 H42        47.6000   51.2300   62.4200 h1       476 PET      0.097188
  10473 C1         50.0300   50.8000   63.2100 c        477 PET      0.825469
  10474 CA1        51.4300   50.3500   63.2500 ca       477 PET     -0.163574
  10475 CA2        52.3600   50.6200   64.2100 ca       477 PET     -0.108363
  10476 CA3        53.7300   50.3100   64.1100 ca       477 PET     -0.078542
  10477 CA4        51.8700   49.6800   62.0800 ca       477 PET     -0.078542
  10478 CA5        53.1800   49.2100   62.0200 ca       477 PET     -0.108363
  10479 CA6        54.1500   49.5100   62.9600 ca       477 PET     -0.163574
  10480 C2         55.6600   49.2600   62.7800 c        477 PET      0.825469
  10481 C3         57.9100   49.3600   63.6700 c3       477 PET      0.058627
  10482 C4         58.6100   50.4300   62.8900 c3       477 PET      0.058627
  10483 O1         49.2200   49.8700   62.6400 os       477 PET     -0.411922
  10484 O2         49.7300   51.9400   63.5300 o        477 PET     -0.591068
  10485 O3         56.1000   48.6700   61.8300 o        477 PET     -0.591068
  10486 O4         56.4800   49.7000   63.7100 os       477 PET     -0.411922
  10487 HA2        51.9700   51.2100   65.0300 ha       477 PET      0.129090
  10488 HA3        54.4200   50.6300   64.8900 ha       477 PET      0.145907
  10489 HA4        51.2300   49.5800   61.2100 ha       477 PET      0.145907
  10490 HA5        53.6300   48.7800   61.1400 ha       477 PET      0.129090
  10491 H31        58.2700   49.3700   64.7100 h1       477 PET      0.097188
  10492 H32        58.1500   48.3800   63.2400 h1       477 PET      0.097188
  10493 H41        58.1600   51.4000   63.1400 h1       477 PET      0.097188
  10494 H42        58.3800   50.2100   61.8500 h1       477 PET      0.097188
  10495 C1         60.8600   51.0800   62.6100 c        478 PET      0.825469
  10496 CA1        62.3000   50.5300   62.8100 ca       478 PET     -0.163574
  10497 CA2        63.3900   51.1500   62.1300 ca       478 PET     -0.108363
  10498 CA3        64.6500   50.6400   62.1400 ca       478 PET     -0.078542
  10499 CA4        62.5300   49.2500   63.4900 ca       478 PET     -0.078542
  10500 CA5        63.8100   48.7000   63.3100 ca       478 PET     -0.108363
  10501 CA6        64.9000   49.3900   62.7200 ca       478 PET     -0.163574
  10502 C2         66.2600   48.8200   62.6300 c        478 PET      0.825469
  10503 C3         68.4800   49.3300   61.8800 c3       478 PET      0.058627
  10504 C4         69.2900   50.5700   61.4500 c3       478 PET      0.058627
  10505 O1         59.9900   50.2500   63.1700 os       478 PET     -0.411922
  10506 O2         60.6000   51.9500   61.8300 o        478 PET     -0.591068
  10507 O3         66.5600   47.6900   62.9700 o        478 PET     -0.591068
  10508 O4         67.1100   49.7200   62.0600 os       478 PET     -0.411922
  10509 HA2        63.2400   52.0700   61.5700 ha       478 PET      0.129090
  10510 HA3        65.4300   51.2600   61.7100 ha       478 PET      0.145907
  10511 HA4        61.6700   48.7300   63.9200 ha       478 PET      0.145907
  10512 HA5        63.9100   47.6600   63.6100 ha       478 PET      0.129090
  10513 H31        68.8800   48.8200   62.7700 h1       478 PET      0.097188
  10514 H32        68.5900   48.5100   61.1600 h1       478 PET      0.097188
  10515 H41        69.1400   51.4100   62.1400 h1       478 PET      0.097188
  10516 H42        68.9200   50.6800   60.4200 h1       478 PET      0.097188
  10517 C1         71.3800   49.8800   62.4000 c        479 PET      0.825469
  10518 CA1        72.8400   49.7400   62.2300 ca       479 PET     -0.163574
  10519 CA2        73.6900   49.7600   63.3100 ca       479 PET     -0.108363
  10520 CA3        75.0400   49.6400   63.1600 ca       479 PET     -0.078542
  10521 CA4        73.3800   49.5900   60.9200 ca       479 PET     -0.078542
  10522 CA5        74.7700   49.4900   60.7200 ca       479 PET     -0.108363
  10523 CA6        75.6700   49.4600   61.8500 ca       479 PET     -0.163574
  10524 C2         77.2000   49.4600   61.7200 c        479 PET      0.825469
  10525 C3         79.3100   49.7000   62.8900 c3       479 PET      0.058627
  10526 C4         79.8300   48.2700   62.6900 c3       479 PET      0.058627
  10527 O1         70.6800   50.2600   61.3000 os       479 PET     -0.411922
  10528 O2         70.8300   49.6400   63.4900 o        479 PET     -0.591068
  10529 O3         77.6900   49.1600   60.6700 o        479 PET     -0.591068
  10530 O4         77.8900   49.7500   62.8600 os       479 PET     -0.411922
  10531 HA2        73.3200   50.2700   64.1900 ha       479 PET      0.129090
  10532 HA3        75.7700   49.7100   63.9600 ha       479 PET      0.145907
  10533 HA4        72.7900   49.7400   60.0200 ha       479 PET      0.145907
  10534 HA5        75.1000   49.5000   59.6800 ha       479 PET      0.129090
  10535 H31        79.6800   50.4200   62.1500 h1       479 PET      0.097188
  10536 H32        79.5000   50.0600   63.9100 h1       479 PET      0.097188
  10537 H41        79.1400   47.8700   61.9400 h1       479 PET      0.097188
  10538 H42        79.6800   47.6400   63.5800 h1       479 PET      0.097188
  10539 C1          2.2100   48.8100   62.9500 c        480 PET      0.825469
  10540 CA1         3.5600   48.6900   62.3400 ca       480 PET     -0.163574
  10541 CA2         3.6800   48.0000   61.1600 ca       480 PET     -0.108363
  10542 CA3         5.0100   47.8300   60.6300 ca       480 PET     -0.078542
  10543 CA4         4.6100   49.3300   63.0300 ca       480 PET     -0.078542
  10544 CA5         5.8800   49.1900   62.4200 ca       480 PET     -0.108363
  10545 CA6         6.0500   48.5600   61.2100 ca       480 PET     -0.163574
  10546 C2          7.4100   48.4100   60.6500 c        480 PET      0.825469
  10547 C3          8.7500   47.9200   58.6700 c3       480 PET      0.058627
  10548 C4          8.5800   47.1400   57.3800 c3       480 PET      0.058627
  10549 O1          1.1700   48.3000   62.2200 os       480 PET     -0.411922
  10550 O2          2.0500   49.3700   64.0500 o        480 PET     -0.591068
  10551 O3          8.4100   48.9000   61.0800 o        480 PET     -0.591068
  10552 O4          7.5000   47.7900   59.4300 os       480 PET     -0.411922
  10553 HA2         2.8300   47.5100   60.6900 ha       480 PET      0.129090
  10554 HA3         5.1000   47.2600   59.7100 ha       480 PET      0.145907
  10555 HA4         4.5600   49.8600   63.9800 ha       480 PET      0.145907
  10556 HA5         6.7300   49.7000   62.8700 ha       480 PET      0.129090
  10557 H31         9.0900   48.9400   58.4900 h1       480 PET      0.097188
  10558 H32         9.5100   47.3300   59.2100 h1       480 PET      0.097188
  10559 H41         9.5200   47.2000   56.8100 h1       480 PET      0.097188
  10560 H42         7.6700   47.4300   56.8400 h1       480 PET      0.097188
  10561 C1         13.7700   12.7200   57.2200 c        481 PET      0.825469
  10562 CA1        12.8400   11.5600   57.1400 ca       481 PET     -0.163574
  10563 CA2        11.7800   11.2600   58.0700 ca       481 PET     -0.108363
  10564 CA3        10.8600   10.1600   57.9500 ca       481 PET     -0.078542
  10565 CA4        12.8700   10.7100   56.0900 ca       481 PET     -0.078542
  10566 CA5        12.0100    9.6000   55.8900 ca       481 PET     -0.108363
  10567 CA6        11.0300    9.3000   56.8600 ca       481 PET     -0.163574
  10568 C2         10.1000    8.1400   56.7300 c        481 PET      0.825469
  10569 C3          8.6600    6.5700   57.6900 c3       481 PET      0.058627
  10570 C4          8.4700    5.8100   59.0300 c3       481 PET      0.058627
  10571 O1         14.7600   12.6000   56.3400 os       481 PET     -0.411922
  10572 O2         13.6600   13.5500   58.1500 o        481 PET     -0.591068
  10573 O3          9.7100    7.8000   55.6300 o        481 PET     -0.591068
  10574 O4          9.5700    7.6400   57.9000 os       481 PET     -0.411922
  10575 HA2        11.6200   11.8700   58.9500 ha       481 PET      0.129090
  10576 HA3        10.1700    9.8500   58.7300 ha       481 PET      0.145907
  10577 HA4        13.6600   10.7500   55.3400 ha       481 PET      0.145907
  10578 HA5        12.0500    9.0300   54.9700 ha       481 PET      0.129090
  10579 H31         7.7100    6.9200   57.2700 h1       481 PET      0.097188
  10580 H32         9.0900    5.8200   57.0100 h1       481 PET      0.097188
  10581 H41         8.7300    6.4700   59.8700 h1       481 PET      0.097188
  10582 H42         9.1600    4.9600   59.0700 h1       481 PET      0.097188
  10583 C1          6.8500    4.3900   60.0900 c        482 PET      0.825469
  10584 CA1         5.3400    4.2600   60.4500 ca       482 PET     -0.163574
  10585 CA2         4.9000    3.3900   61.5000 ca       482 PET     -0.108363
  10586 CA3         3.4900    3.2100   61.7400 ca       482 PET     -0.078542
  10587 CA4         4.3900    4.9600   59.7100 ca       482 PET     -0.078542
  10588 CA5         3.0200    4.7900   59.9300 ca       482 PET     -0.108363
  10589 CA6         2.5400    3.8400   60.8700 ca       482 PET     -0.163574
  10590 C2          1.0300    3.5900   61.0200 c        482 PET      0.825469
  10591 C3         -1.1700    4.2000   60.0100 c3       482 PET      0.058627
  10592 C4         -1.4700    2.8500   59.3900 c3       482 PET      0.058627
  10593 O1          7.0700    5.3600   59.2200 os       482 PET     -0.411922
  10594 O2          7.7300    3.7100   60.5700 o        482 PET     -0.591068
  10595 O3          0.6000    2.7300   61.7600 o        482 PET     -0.591068
  10596 O4          0.2700    4.4100   60.2600 os       482 PET     -0.411922
  10597 HA2         5.6500    2.9000   62.1200 ha       482 PET      0.129090
  10598 HA3         3.0800    2.4900   62.4400 ha       482 PET      0.145907
  10599 HA4         4.7400    5.5700   58.8800 ha       482 PET      0.145907
  10600 HA5         2.3100    5.4500   59.4400 ha       482 PET      0.129090
  10601 H31        -1.7200    4.2300   60.9600 h1       482 PET      0.097188
  10602 H32        -1.5800    5.0400   59.4400 h1       482 PET      0.097188
  10603 H41        -1.5300    2.1100   60.2000 h1       482 PET      0.097188
  10604 H42        -0.7500    2.6100   58.6000 h1       482 PET      0.097188
  10605 C1         76.9400    3.5300   57.6800 c        483 PET      0.825469
  10606 CA1        75.5500    3.2200   57.1600 ca       483 PET     -0.163574
  10607 CA2        74.7400    2.1700   57.6500 ca       483 PET     -0.108363
  10608 CA3        73.5400    1.8400   57.1500 ca       483 PET     -0.078542
  10609 CA4        75.0300    4.0000   56.0400 ca       483 PET     -0.078542
  10610 CA5        73.7000    3.7200   55.5900 ca       483 PET     -0.108363
  10611 CA6        72.9900    2.5700   56.0300 ca       483 PET     -0.163574
  10612 C2         71.6000    2.3100   55.6500 c        483 PET      0.825469
  10613 C3         69.8300    2.6600   54.0400 c3       483 PET      0.058627
  10614 C4         69.8100    2.8900   52.5400 c3       483 PET      0.058627
  10615 O1         77.2000    2.8600   58.8300 os       483 PET     -0.411922
  10616 O2         77.7900    4.1800   57.1100 o        483 PET     -0.591068
  10617 O3         70.8200    1.7600   56.4600 o        483 PET     -0.591068
  10618 O4         71.2000    2.8300   54.4400 os       483 PET     -0.411922
  10619 HA2        75.1400    1.5100   58.4200 ha       483 PET      0.129090
  10620 HA3        73.0300    1.0300   57.6700 ha       483 PET      0.145907
  10621 HA4        75.6000    4.7700   55.5300 ha       483 PET      0.145907
  10622 HA5        73.2400    4.3500   54.8400 ha       483 PET      0.129090
  10623 H31        69.4800    1.6500   54.2700 h1       483 PET      0.097188
  10624 H32        69.1500    3.4100   54.4700 h1       483 PET      0.097188
  10625 H41        68.8300    2.7100   52.0800 h1       483 PET      0.097188
  10626 H42        70.5400    2.2100   52.0900 h1       483 PET      0.097188
  10627 C1         69.2100    5.2200   52.2800 c        484 PET      0.825469
  10628 CA1        69.6700    6.6200   52.3600 ca       484 PET     -0.163574
  10629 CA2        68.8100    7.6600   51.9200 ca       484 PET     -0.108363
  10630 CA3        69.3000    8.9800   51.9400 ca       484 PET     -0.078542
  10631 CA4        71.0300    6.9100   52.6900 ca       484 PET     -0.078542
  10632 CA5        71.4400    8.2500   52.7700 ca       484 PET     -0.108363
  10633 CA6        70.5800    9.3600   52.3700 ca       484 PET     -0.163574
  10634 C2         71.1100   10.7800   52.3500 c        484 PET      0.825469
  10635 C3         70.2700   13.0300   52.2200 c3       484 PET      0.058627
  10636 C4         69.7600   13.4900   53.5300 c3       484 PET      0.058627
  10637 O1         70.1900    4.2500   52.2600 os       484 PET     -0.411922
  10638 O2         68.0100    4.9200   52.3600 o        484 PET     -0.591068
  10639 O3         72.2900   11.0700   52.6000 o        484 PET     -0.591068
  10640 O4         70.1100   11.6400   52.0600 os       484 PET     -0.411922
  10641 HA2        67.7900    7.5300   51.5900 ha       484 PET      0.129090
  10642 HA3        68.7300    9.6800   51.3200 ha       484 PET      0.145907
  10643 HA4        71.7500    6.1300   52.9000 ha       484 PET      0.145907
  10644 HA5        72.4100    8.4300   53.2200 ha       484 PET      0.129090
  10645 H31        71.3600   13.1600   52.2500 h1       484 PET      0.097188
  10646 H32        69.8300   13.6200   51.4100 h1       484 PET      0.097188
  10647 H41        68.7700   13.1000   53.7800 h1       484 PET      0.097188
  10648 H42        69.6700   14.5600   53.3100 h1       484 PET      0.097188
  10649 C1         70.3600   13.3100   55.9500 c        485 PET      0.825469
  10650 CA1        71.5200   13.3600   56.9900 ca       485 PET     -0.163574
  10651 CA2        71.3300   13.2900   58.3900 ca       485 PET     -0.108363
  10652 CA3        72.4200   13.4900   59.2100 ca       485 PET     -0.078542
  10653 CA4        72.8300   13.4800   56.5000 ca       485 PET     -0.078542
  10654 CA5        73.9000   13.5200   57.4100 ca       485 PET     -0.108363
  10655 CA6        73.7100   13.4900   58.7900 ca       485 PET     -0.163574
  10656 C2         74.7700   13.3100   59.7900 c        485 PET      0.825469
  10657 C3         77.1200   13.6600   60.1200 c3       485 PET      0.058627
  10658 C4         78.4000   13.9800   59.4300 c3       485 PET      0.058627
  10659 O1         70.7100   13.1400   54.6100 os       485 PET     -0.411922
  10660 O2         69.1600   13.3700   56.3300 o        485 PET     -0.591068
  10661 O3         74.7200   12.7500   60.8900 o        485 PET     -0.591068
  10662 O4         75.9600   13.7200   59.2400 os       485 PET     -0.411922
  10663 HA2        70.3100   13.2100   58.7700 ha       485 PET      0.129090
  10664 HA3        72.2800   13.5600   60.2800 ha       485 PET      0.145907
  10665 HA4        72.9800   13.3000   55.4400 ha       485 PET      0.145907
  10666 HA5        74.9200   13.5600   57.0200 ha       485 PET      0.129090
  10667 H31        76.9900   14.2600   61.0300 h1       485 PET      0.097188
  10668 H32        77.2400   12.6300   60.4600 h1       485 PET      0.097188
  10669 H41        78.3200   14.8900   58.8200 h1       485 PET      0.097188
  10670 H42        78.7000   13.2100   58.7100 h1       485 PET      0.097188
  10671 C1          0.6500   14.2500   60.0600 c        486 PET      0.825469
  10672 CA1         1.5400   14.5300   61.1900 ca       486 PET     -0.163574
  10673 CA2         0.9900   14.8600   62.5000 ca       486 PET     -0.108363
  10674 CA3         1.8800   15.1900   63.5200 ca       486 PET     -0.078542
  10675 CA4         2.9400   14.5100   61.0300 ca       486 PET     -0.078542
  10676 CA5         3.8000   14.8500   62.1200 ca       486 PET     -0.108363
  10677 CA6         3.2700   15.3200   63.3000 ca       486 PET     -0.163574
  10678 C2          4.2200   15.7100   64.4000 c        486 PET      0.825469
  10679 C3          6.3400   15.2500   65.3600 c3       486 PET      0.058627
  10680 C4          7.1800   16.6000   65.1700 c3       486 PET      0.058627
  10681 O1         -0.6300   14.2300   60.4300 os       486 PET     -0.411922
  10682 O2          1.0000   13.9700   58.9000 o        486 PET     -0.591068
  10683 O3          4.0400   16.5600   65.2100 o        486 PET     -0.591068
  10684 O4          5.3800   15.0100   64.2900 os       486 PET     -0.411922
  10685 HA2        -0.0800   14.9400   62.6900 ha       486 PET      0.129090
  10686 HA3         1.4500   15.5800   64.4400 ha       486 PET      0.145907
  10687 HA4         3.3500   14.1500   60.0900 ha       486 PET      0.145907
  10688 HA5         4.8700   14.7900   61.9400 ha       486 PET      0.129090
  10689 H31         5.8500   15.0900   66.3300 h1       486 PET      0.097188
  10690 H32         7.0800   14.4400   65.3300 h1       486 PET      0.097188
  10691 H41         6.6900   17.5200   65.5200 h1       486 PET      0.097188
  10692 H42         7.3500   16.6500   64.0900 h1       486 PET      0.097188
  10693 C1          9.5500   17.3400   65.5300 c        487 PET      0.825469
  10694 CA1        10.8800   16.9200   66.1800 ca       487 PET     -0.163574
  10695 CA2        10.9100   15.9200   67.1500 ca       487 PET     -0.108363
  10696 CA3        12.0900   15.5300   67.6800 ca       487 PET     -0.078542
  10697 CA4        12.1100   17.4900   65.7600 ca       487 PET     -0.078542
  10698 CA5        13.2800   17.0200   66.2700 ca       487 PET     -0.108363
  10699 CA6        13.3000   16.0400   67.3000 ca       487 PET     -0.163574
  10700 C2         14.5800   15.3000   67.6200 c        487 PET      0.825469
  10701 C3         17.0500   15.3500   67.3300 c3       487 PET      0.058627
  10702 C4         17.3800   15.2800   68.8000 c3       487 PET      0.058627
  10703 O1          8.5300   16.4900   65.7900 os       487 PET     -0.411922
  10704 O2          9.4100   18.3800   64.9300 o        487 PET     -0.591068
  10705 O3         14.5300   14.1300   67.9500 o        487 PET     -0.591068
  10706 O4         15.7500   15.9300   67.2300 os       487 PET     -0.411922
  10707 HA2        10.0200   15.3500   67.4000 ha       487 PET      0.129090
  10708 HA3        12.0200   14.7300   68.4100 ha       487 PET      0.145907
  10709 HA4        12.1600   18.3600   65.1100 ha       487 PET      0.145907
  10710 HA5        14.1900   17.5700   66.0400 ha       487 PET      0.129090
  10711 H31        17.1700   14.3300   66.9600 h1       487 PET      0.097188
  10712 H32        17.7500   16.0700   66.9000 h1       487 PET      0.097188
  10713 H41        16.7800   14.6100   69.4300 h1       487 PET      0.097188
  10714 H42        17.1500   16.3300   69.0000 h1       487 PET      0.097188
  10715 C1         19.3100   13.8000   68.8500 c        488 PET      0.825469
  10716 CA1        20.8100   13.6800   68.8300 ca       488 PET     -0.163574
  10717 CA2        21.4800   12.4900   68.9300 ca       488 PET     -0.108363
  10718 CA3        22.8800   12.4500   69.0300 ca       488 PET     -0.078542
  10719 CA4        21.6200   14.9100   68.7000 ca       488 PET     -0.078542
  10720 CA5        23.0100   14.9000   68.7800 ca       488 PET     -0.108363
  10721 CA6        23.7000   13.6500   68.9200 ca       488 PET     -0.163574
  10722 C2         25.2000   13.5900   68.9900 c        488 PET      0.825469
  10723 C3         27.0600   12.1200   69.2000 c3       488 PET      0.058627
  10724 C4         27.8400   12.4200   67.8900 c3       488 PET      0.058627
  10725 O1         18.8100   15.0700   68.8900 os       488 PET     -0.411922
  10726 O2         18.6500   12.8000   68.7400 o        488 PET     -0.591068
  10727 O3         25.9700   14.5200   68.9000 o        488 PET     -0.591068
  10728 O4         25.7100   12.3000   69.0500 os       488 PET     -0.411922
  10729 HA2        20.9400   11.5600   68.8400 ha       488 PET      0.129090
  10730 HA3        23.3700   11.4800   68.9500 ha       488 PET      0.145907
  10731 HA4        21.1300   15.8700   68.6100 ha       488 PET      0.145907
  10732 HA5        23.5400   15.8300   68.5800 ha       488 PET      0.129090
  10733 H31        27.5000   12.7600   69.9800 h1       488 PET      0.097188
  10734 H32        27.2500   11.0800   69.4700 h1       488 PET      0.097188
  10735 H41        28.1400   13.4700   68.0200 h1       488 PET      0.097188
  10736 H42        27.2800   12.2100   66.9800 h1       488 PET      0.097188
  10737 C1         29.9000   11.8000   66.8900 c        489 PET      0.825469
  10738 CA1        31.1300   10.9100   66.9000 ca       489 PET     -0.163574
  10739 CA2        32.0000   10.9200   65.7800 ca       489 PET     -0.108363
  10740 CA3        33.2100   10.2200   65.8700 ca       489 PET     -0.078542
  10741 CA4        31.3700   10.2100   68.0200 ca       489 PET     -0.078542
  10742 CA5        32.5900    9.4600   68.0600 ca       489 PET     -0.108363
  10743 CA6        33.5000    9.5000   67.0500 ca       489 PET     -0.163574
  10744 C2         34.7600    8.7100   67.1100 c        489 PET      0.825469
  10745 C3         36.5400    7.6600   65.8000 c3       489 PET      0.058627
  10746 C4         36.8700    7.2800   64.3400 c3       489 PET      0.058627
  10747 O1         29.0000   11.6100   67.8700 os       489 PET     -0.411922
  10748 O2         29.7900   12.7000   66.0800 o        489 PET     -0.591068
  10749 O3         35.3100    8.4600   68.1600 o        489 PET     -0.591068
  10750 O4         35.2700    8.3300   65.8800 os       489 PET     -0.411922
  10751 HA2        31.7900   11.5200   64.9000 ha       489 PET      0.129090
  10752 HA3        33.9100   10.2400   65.0400 ha       489 PET      0.145907
  10753 HA4        30.6400   10.1800   68.8200 ha       489 PET      0.145907
  10754 HA5        32.8000    8.9200   68.9800 ha       489 PET      0.129090
  10755 H31        37.2600    8.2900   66.3400 h1       489 PET      0.097188
  10756 H32        36.5700    6.7300   66.3800 h1       489 PET      0.097188
  10757 H41        35.9500    7.5800   63.8300 h1       489 PET      0.097188
  10758 H42        36.9300    6.2000   64.1300 h1       489 PET      0.097188
  10759 C1         38.2600    9.2600   63.7400 c        490 PET      0.825469
  10760 CA1        39.6900    9.5900   63.4300 ca       490 PET     -0.163574
  10761 CA2        40.5300    8.6400   62.8000 ca       490 PET     -0.108363
  10762 CA3        41.9400    8.8700   62.6400 ca       490 PET     -0.078542
  10763 CA4        40.2000   10.8600   63.7300 ca       490 PET     -0.078542
  10764 CA5        41.5600   11.0900   63.5400 ca       490 PET     -0.108363
  10765 CA6        42.4600   10.0900   63.0600 ca       490 PET     -0.163574
  10766 C2         43.9600   10.3700   63.0500 c        490 PET      0.825469
  10767 C3         46.0500    9.0500   63.1400 c3       490 PET      0.058627
  10768 C4         46.6200    7.6000   62.6700 c3       490 PET      0.058627
  10769 O1         38.0900    7.9300   63.7700 os       490 PET     -0.411922
  10770 O2         37.4200   10.0900   64.0500 o        490 PET     -0.591068
  10771 O3         44.4900   11.4800   63.2600 o        490 PET     -0.591068
  10772 O4         44.6600    9.1800   62.8300 os       490 PET     -0.411922
  10773 HA2        40.0900    7.7600   62.3400 ha       490 PET      0.129090
  10774 HA3        42.6100    8.1000   62.2700 ha       490 PET      0.145907
  10775 HA4        39.6200   11.6900   64.1100 ha       490 PET      0.145907
  10776 HA5        42.0500   11.9900   63.9000 ha       490 PET      0.129090
  10777 H31        46.6300    9.8500   62.6700 h1       490 PET      0.097188
  10778 H32        46.2000    9.1900   64.2200 h1       490 PET      0.097188
  10779 H41        46.1700    7.3600   61.7000 h1       490 PET      0.097188
  10780 H42        46.2800    6.9800   63.5100 h1       490 PET      0.097188
  10781 C1         48.8500    7.3700   63.7300 c        491 PET      0.825469
  10782 CA1        50.2400    6.8700   63.4900 ca       491 PET     -0.163574
  10783 CA2        51.0200    6.5100   64.5500 ca       491 PET     -0.108363
  10784 CA3        52.4000    6.2800   64.4100 ca       491 PET     -0.078542
  10785 CA4        50.8000    6.9700   62.1800 ca       491 PET     -0.078542
  10786 CA5        52.1800    6.6600   62.0300 ca       491 PET     -0.108363
  10787 CA6        53.0200    6.3200   63.1200 ca       491 PET     -0.163574
  10788 C2         54.5100    5.9800   62.8500 c        491 PET      0.825469
  10789 C3         56.5800    5.5700   63.9500 c3       491 PET      0.058627
  10790 C4         57.2500    6.9300   64.2300 c3       491 PET      0.058627
  10791 O1         48.1000    7.5500   62.5900 os       491 PET     -0.411922
  10792 O2         48.4700    7.7200   64.8200 o        491 PET     -0.591068
  10793 O3         54.9700    6.2300   61.7700 o        491 PET     -0.591068
  10794 O4         55.1900    5.5600   63.9600 os       491 PET     -0.411922
  10795 HA2        50.5000    6.4800   65.5000 ha       491 PET      0.129090
  10796 HA3        52.9800    6.0800   65.3000 ha       491 PET      0.145907
  10797 HA4        50.1300    7.2300   61.3700 ha       491 PET      0.145907
  10798 HA5        52.5900    6.5500   61.0400 ha       491 PET      0.129090
  10799 H31        56.8400    4.9800   64.8400 h1       491 PET      0.097188
  10800 H32        57.0200    5.0900   63.0700 h1       491 PET      0.097188
  10801 H41        56.9600    7.1100   65.2700 h1       491 PET      0.097188
  10802 H42        56.7600    7.6500   63.5600 h1       491 PET      0.097188
  10803 C1         59.4700    6.3900   64.9600 c        492 PET      0.825469
  10804 CA1        60.9100    6.3800   64.7300 ca       492 PET     -0.163574
  10805 CA2        61.7000    5.4200   65.3800 ca       492 PET     -0.108363
  10806 CA3        63.1600    5.3900   65.1800 ca       492 PET     -0.078542
  10807 CA4        61.5700    7.2300   63.7500 ca       492 PET     -0.078542
  10808 CA5        62.9600    7.1100   63.4700 ca       492 PET     -0.108363
  10809 CA6        63.7600    6.2000   64.1900 ca       492 PET     -0.163574
  10810 C2         65.2500    6.0500   64.0300 c        492 PET      0.825469
  10811 C3         67.2700    5.0600   64.9100 c3       492 PET      0.058627
  10812 C4         67.8500    4.3000   66.0600 c3       492 PET      0.058627
  10813 O1         58.7000    7.0500   64.0800 os       492 PET     -0.411922
  10814 O2         58.9900    5.7500   65.8700 o        492 PET     -0.591068
  10815 O3         65.8000    6.5500   63.1000 o        492 PET     -0.591068
  10816 O4         65.8400    5.2300   65.0200 os       492 PET     -0.411922
  10817 HA2        61.2600    4.7100   66.0700 ha       492 PET      0.129090
  10818 HA3        63.7300    4.6900   65.7800 ha       492 PET      0.145907
  10819 HA4        60.9200    7.9200   63.2200 ha       492 PET      0.145907
  10820 HA5        63.3100    7.8100   62.7100 ha       492 PET      0.129090
  10821 H31        67.4400    4.5100   63.9800 h1       492 PET      0.097188
  10822 H32        67.8400    6.0000   64.8300 h1       492 PET      0.097188
  10823 H41        67.3900    3.3200   66.2500 h1       492 PET      0.097188
  10824 H42        67.6100    4.8900   66.9600 h1       492 PET      0.097188
  10825 C1         69.9400   83.2500   66.7500 c        493 PET      0.825469
  10826 CA1        71.3700   83.0200   66.3000 ca       493 PET     -0.163574
  10827 CA2        71.6700   83.0200   64.9200 ca       493 PET     -0.108363
  10828 CA3        73.0000   82.6900   64.5000 ca       493 PET     -0.078542
  10829 CA4        72.3800   82.6400   67.2100 ca       493 PET     -0.078542
  10830 CA5        73.7200   82.4000   66.7800 ca       493 PET     -0.108363
  10831 CA6        74.0600   82.4400   65.4600 ca       493 PET     -0.163574
  10832 C2         75.4600   82.0500   64.9500 c        493 PET      0.825469
  10833 C3         77.4800   80.9300   65.5200 c3       493 PET      0.058627
  10834 C4         78.3400   82.0600   64.9600 c3       493 PET      0.058627
  10835 O1         69.3000   84.1500   65.8800 os       493 PET     -0.411922
  10836 O2         69.4000   82.7200   67.7200 o        493 PET     -0.591068
  10837 O3         75.8500   82.2800   63.8200 o        493 PET     -0.591068
  10838 O4         76.2100   81.4800   65.9400 os       493 PET     -0.411922
  10839 HA2        70.9000   83.2000   64.1700 ha       493 PET      0.129090
  10840 HA3        73.2700   82.5900   63.4500 ha       493 PET      0.145907
  10841 HA4        72.1700   82.6100   68.2800 ha       493 PET      0.145907
  10842 HA5        74.5200   82.3600   67.5100 ha       493 PET      0.129090
  10843 H31        78.0000   80.4400   66.3600 h1       493 PET      0.097188
  10844 H32        77.4200   80.1200   64.8000 h1       493 PET      0.097188
  10845 H41        78.0800   83.0300   65.3900 h1       493 PET      0.097188
  10846 H42        78.3400   82.1800   63.8700 h1       493 PET      0.097188
  10847 C1          0.4700   80.7200   65.1400 c        494 PET      0.825469
  10848 CA1         1.9800   80.8800   65.0100 ca       494 PET     -0.163574
  10849 CA2         2.6800   81.9800   65.5100 ca       494 PET     -0.108363
  10850 CA3         4.1100   82.1400   65.4700 ca       494 PET     -0.078542
  10851 CA4         2.7300   79.8700   64.3900 ca       494 PET     -0.078542
  10852 CA5         4.1500   80.0200   64.3400 ca       494 PET     -0.108363
  10853 CA6         4.8500   81.0900   64.9000 ca       494 PET     -0.163574
  10854 C2          6.3400   81.1700   64.8200 c        494 PET      0.825469
  10855 C3          8.1300   82.6100   64.1400 c3       494 PET      0.058627
  10856 C4          8.4200   84.0600   63.9300 c3       494 PET      0.058627
  10857 O1         -0.2400   81.8800   65.3800 os       494 PET     -0.411922
  10858 O2         -0.0300   79.6300   64.9500 o        494 PET     -0.591068
  10859 O3          7.0600   80.2200   64.6200 o        494 PET     -0.591068
  10860 O4          6.7500   82.4700   64.5000 os       494 PET     -0.411922
  10861 HA2         2.1200   82.7200   66.0800 ha       494 PET      0.129090
  10862 HA3         4.6500   82.9700   65.9100 ha       494 PET      0.145907
  10863 HA4         2.2200   78.9600   64.1000 ha       494 PET      0.145907
  10864 HA5         4.6900   79.2100   63.8700 ha       494 PET      0.129090
  10865 H31         8.7100   82.2000   64.9700 h1       494 PET      0.097188
  10866 H32         8.3600   82.0100   63.2500 h1       494 PET      0.097188
  10867 H41         7.9800   84.6200   64.7700 h1       494 PET      0.097188
  10868 H42         7.8800   84.2500   63.0000 h1       494 PET      0.097188
  10869 C1         10.5100    5.3000   63.4500 c        495 PET      0.825469
  10870 CA1        12.0500    5.1400   63.6200 ca       495 PET     -0.163574
  10871 CA2        12.6500    3.9500   64.0100 ca       495 PET     -0.108363
  10872 CA3        14.0200    3.8100   63.9300 ca       495 PET     -0.078542
  10873 CA4        12.8300    6.2300   63.2300 ca       495 PET     -0.078542
  10874 CA5        14.2300    6.0700   63.1500 ca       495 PET     -0.108363
  10875 CA6        14.8400    4.8500   63.5200 ca       495 PET     -0.163574
  10876 C2         16.2800    4.7600   63.5200 c        495 PET      0.825469
  10877 C3         18.3400    5.8600   63.3200 c3       495 PET      0.058627
  10878 C4         18.7000    7.3700   63.3400 c3       495 PET      0.058627
  10879 O1          9.8700    4.1300   63.8000 os       495 PET     -0.411922
  10880 O2          9.9700    6.3300   63.2600 o        495 PET     -0.591068
  10881 O3         16.8900    3.6900   63.7900 o        495 PET     -0.591068
  10882 O4         16.9000    5.9400   63.1800 os       495 PET     -0.411922
  10883 HA2        11.9700    3.1700   64.3500 ha       495 PET      0.129090
  10884 HA3        14.5500    2.9300   64.2700 ha       495 PET      0.145907
  10885 HA4        12.3100    7.0600   62.7600 ha       495 PET      0.145907
  10886 HA5        14.7800    6.9400   62.8100 ha       495 PET      0.129090
  10887 H31        18.6300    5.4200   64.2800 h1       495 PET      0.097188
  10888 H32        18.7400    5.2400   62.5100 h1       495 PET      0.097188
  10889 H41        18.4900    7.7700   64.3400 h1       495 PET      0.097188
  10890 H42        18.0200    7.9100   62.6800 h1       495 PET      0.097188
  10891 C1         20.9700    7.5400   64.0300 c        496 PET      0.825469
  10892 CA1        22.3800    7.6400   63.5000 ca       496 PET     -0.163574
  10893 CA2        22.6900    7.9600   62.2000 ca       496 PET     -0.108363
  10894 CA3        24.0500    8.2400   61.7900 ca       496 PET     -0.078542
  10895 CA4        23.4900    7.4100   64.3400 ca       496 PET     -0.078542
  10896 CA5        24.8400    7.5400   63.9200 ca       496 PET     -0.108363
  10897 CA6        25.1700    8.1000   62.6900 ca       496 PET     -0.163574
  10898 C2         26.5700    8.1500   62.2100 c        496 PET      0.825469
  10899 C3         28.8900    7.8900   62.6900 c3       496 PET      0.058627
  10900 C4         29.8100    8.1800   63.9000 c3       496 PET      0.058627
  10901 O1         20.0900    7.5300   63.0100 os       496 PET     -0.411922
  10902 O2         20.7600    7.3500   65.2400 o        496 PET     -0.591068
  10903 O3         26.6900    8.2700   60.9900 o        496 PET     -0.591068
  10904 O4         27.5300    8.0800   63.1400 os       496 PET     -0.411922
  10905 HA2        22.0000    8.1400   61.3800 ha       496 PET      0.129090
  10906 HA3        24.2600    8.5300   60.7700 ha       496 PET      0.145907
  10907 HA4        23.3100    7.1800   65.3900 ha       496 PET      0.145907
  10908 HA5        25.6600    7.2500   64.5700 ha       496 PET      0.129090
  10909 H31        28.9800    6.8700   62.2900 h1       496 PET      0.097188
  10910 H32        29.0900    8.6300   61.9100 h1       496 PET      0.097188
  10911 H41        29.8700    7.2800   64.5100 h1       496 PET      0.097188
  10912 H42        29.4400    9.0000   64.5300 h1       496 PET      0.097188
  10913 C1         31.8900    7.3400   63.1400 c        497 PET      0.825469
  10914 CA1        33.2000    7.6300   62.4000 ca       497 PET     -0.163574
  10915 CA2        34.0900    6.5700   62.0500 ca       497 PET     -0.108363
  10916 CA3        35.2700    6.7300   61.3200 ca       497 PET     -0.078542
  10917 CA4        33.5900    8.9300   62.1300 ca       497 PET     -0.078542
  10918 CA5        34.8500    9.1800   61.5300 ca       497 PET     -0.108363
  10919 CA6        35.6700    8.1100   61.0700 ca       497 PET     -0.163574
  10920 C2         36.9300    8.3500   60.2600 c        497 PET      0.825469
  10921 C3         37.9700    9.9400   58.8000 c3       497 PET      0.058627
  10922 C4         39.1900   10.3300   59.7000 c3       497 PET      0.058627
  10923 O1         31.1000    8.4400   63.3600 os       497 PET     -0.411922
  10924 O2         31.6100    6.2100   63.4100 o        497 PET     -0.591068
  10925 O3         37.8300    7.5300   60.1500 o        497 PET     -0.591068
  10926 O4         36.8700    9.5600   59.6300 os       497 PET     -0.411922
  10927 HA2        33.8700    5.5500   62.3300 ha       497 PET      0.129090
  10928 HA3        35.9000    5.9100   60.9900 ha       497 PET      0.145907
  10929 HA4        32.9100    9.7400   62.3600 ha       497 PET      0.145907
  10930 HA5        34.9900   10.1600   61.0900 ha       497 PET      0.129090
  10931 H31        38.1900    9.1000   58.1400 h1       497 PET      0.097188
  10932 H32        37.7400   10.8100   58.1700 h1       497 PET      0.097188
  10933 H41        38.8800   10.1600   60.7400 h1       497 PET      0.097188
  10934 H42        39.3900   11.4000   59.5500 h1       497 PET      0.097188
  10935 C1         41.5400    9.8500   59.5500 c        498 PET      0.825469
  10936 CA1        42.6000    8.7200   59.5400 ca       498 PET     -0.163574
  10937 CA2        43.9700    9.0500   59.4500 ca       498 PET     -0.108363
  10938 CA3        44.9800    8.0100   59.4900 ca       498 PET     -0.078542
  10939 CA4        42.2600    7.3400   59.5400 ca       498 PET     -0.078542
  10940 CA5        43.2500    6.3700   59.5200 ca       498 PET     -0.108363
  10941 CA6        44.6000    6.6200   59.4100 ca       498 PET     -0.163574
  10942 C2         45.6700    5.5600   59.4400 c        498 PET      0.825469
  10943 C3         48.0600    5.2000   58.9900 c3       498 PET      0.058627
  10944 C4         48.5100    4.4400   60.3300 c3       498 PET      0.058627
  10945 O1         40.2600    9.4600   59.3200 os       498 PET     -0.411922
  10946 O2         41.8900   10.9700   59.6900 o        498 PET     -0.591068
  10947 O3         45.5200    4.3800   59.6200 o        498 PET     -0.591068
  10948 O4         46.9000    6.0600   59.3300 os       498 PET     -0.411922
  10949 HA2        44.3300   10.0700   59.5100 ha       498 PET      0.129090
  10950 HA3        46.0400    8.2400   59.4300 ha       498 PET      0.145907
  10951 HA4        41.2000    7.1000   59.5600 ha       498 PET      0.145907
  10952 HA5        42.9300    5.3300   59.5600 ha       498 PET      0.129090
  10953 H31        47.7800    4.4400   58.2500 h1       498 PET      0.097188
  10954 H32        48.8900    5.8100   58.6300 h1       498 PET      0.097188
  10955 H41        47.8900    3.5500   60.5100 h1       498 PET      0.097188
  10956 H42        48.4300    5.1600   61.1600 h1       498 PET      0.097188
  10957 C1         50.5700    3.6400   61.2100 c        499 PET      0.825469
  10958 CA1        51.9600    3.2000   60.9200 ca       499 PET     -0.163574
  10959 CA2        52.9500    3.4000   61.8600 ca       499 PET     -0.108363
  10960 CA3        54.3000    3.2500   61.6000 ca       499 PET     -0.078542
  10961 CA4        52.3200    2.6200   59.6900 ca       499 PET     -0.078542
  10962 CA5        53.6800    2.3900   59.4000 ca       499 PET     -0.108363
  10963 CA6        54.6400    2.7100   60.3300 ca       499 PET     -0.163574
  10964 C2         56.0900    2.5800   59.9800 c        499 PET      0.825469
  10965 C3         58.2600    3.5100   60.1700 c3       499 PET      0.058627
  10966 C4         58.7700    4.8200   60.5700 c3       499 PET      0.058627
  10967 O1         49.8900    4.0700   60.1500 os       499 PET     -0.411922
  10968 O2         50.0800    3.6200   62.3100 o        499 PET     -0.591068
  10969 O3         56.4600    1.7700   59.1800 o        499 PET     -0.591068
  10970 O4         56.9200    3.5000   60.5700 os       499 PET     -0.411922
  10971 HA2        52.6500    3.8900   62.7800 ha       499 PET      0.129090
  10972 HA3        55.1400    3.3700   62.2700 ha       499 PET      0.145907
  10973 HA4        51.5200    2.4400   58.9800 ha       499 PET      0.145907
  10974 HA5        53.9600    2.0700   58.4000 ha       499 PET      0.129090
  10975 H31        58.8500    2.7100   60.6400 h1       499 PET      0.097188
  10976 H32        58.2800    3.4500   59.0800 h1       499 PET      0.097188
  10977 H41        58.6300    4.9900   61.6500 h1       499 PET      0.097188
  10978 H42        58.2900    5.6900   60.1000 h1       499 PET      0.097188
  10979 C1         60.5300    5.0500   58.9300 c        500 PET      0.825469
  10980 CA1        61.9600    5.6100   58.8000 ca       500 PET     -0.163574
  10981 CA2        62.5900    6.0800   59.9400 ca       500 PET     -0.108363
  10982 CA3        63.8100    6.8000   59.8600 ca       500 PET     -0.078542
  10983 CA4        62.5000    5.9500   57.5400 ca       500 PET     -0.078542
  10984 CA5        63.7800    6.5500   57.4400 ca       500 PET     -0.108363
  10985 CA6        64.4300    6.9500   58.6200 ca       500 PET     -0.163574
  10986 C2         65.7800    7.6100   58.5000 c        500 PET      0.825469
  10987 C3         67.6200    8.2600   60.0500 c3       500 PET      0.058627
  10988 C4         67.8000    8.1400   61.5500 c3       500 PET      0.058627
  10989 O1         60.1400    4.8500   60.2300 os       500 PET     -0.411922
  10990 O2         59.8400    4.8200   57.9600 o        500 PET     -0.591068
  10991 O3         66.3100    7.9600   57.4200 o        500 PET     -0.591068
  10992 O4         66.3100    7.7600   59.7500 os       500 PET     -0.411922
  10993 HA2        62.1000    5.8900   60.8900 ha       500 PET      0.129090
  10994 HA3        64.3800    7.0800   60.7400 ha       500 PET      0.145907
  10995 HA4        61.9300    5.7600   56.6400 ha       500 PET      0.145907
  10996 HA5        64.3200    6.7400   56.5200 ha       500 PET      0.129090
  10997 H31        68.3500    7.7400   59.4200 h1       500 PET      0.097188
  10998 H32        67.6600    9.3400   59.8300 h1       500 PET      0.097188
  10999 H41        67.7100    7.0600   61.7100 h1       500 PET      0.097188
  11000 H42        67.0400    8.6300   62.1700 h1       500 PET      0.097188
  11001 C1         70.1500    7.8700   61.4000 c        501 PET      0.825469
  11002 CA1        71.5300    8.5500   61.6700 ca       501 PET     -0.163574
  11003 CA2        72.6800    8.1400   60.9400 ca       501 PET     -0.108363
  11004 CA3        73.9300    8.7000   61.1800 ca       501 PET     -0.078542
  11005 CA4        71.5700    9.5100   62.6300 ca       501 PET     -0.078542
  11006 CA5        72.7800   10.1500   62.8400 ca       501 PET     -0.108363
  11007 CA6        74.0200    9.6800   62.2000 ca       501 PET     -0.163574
  11008 C2         75.3700   10.1500   62.5800 c        501 PET      0.825469
  11009 C3         77.7100   10.0000   62.0900 c3       501 PET      0.058627
  11010 C4         78.6300    9.2000   61.0600 c3       501 PET      0.058627
  11011 O1         69.1200    8.5900   61.9200 os       501 PET     -0.411922
  11012 O2         70.0000    6.8400   60.7800 o        501 PET     -0.591068
  11013 O3         75.5600   10.8200   63.5900 o        501 PET     -0.591068
  11014 O4         76.4100    9.7700   61.7600 os       501 PET     -0.411922
  11015 HA2        72.5400    7.4600   60.1100 ha       501 PET      0.129090
  11016 HA3        74.7200    8.6000   60.4400 ha       501 PET      0.145907
  11017 HA4        70.7000    9.8900   63.1700 ha       501 PET      0.145907
  11018 HA5        72.9200   10.7800   63.7100 ha       501 PET      0.129090
  11019 H31        77.9000   11.0800   61.9700 h1       501 PET      0.097188
  11020 H32        77.8500    9.7000   63.1300 h1       501 PET      0.097188
  11021 H41        78.0800    9.1500   60.1100 h1       501 PET      0.097188
  11022 H42        78.7300    8.1500   61.3700 h1       501 PET      0.097188
  11023 C1          0.7400   10.1600   61.8500 c        502 PET      0.825469
  11024 CA1         2.1200   10.6200   61.3800 ca       502 PET     -0.163574
  11025 CA2         2.5200   10.7500   60.0100 ca       502 PET     -0.108363
  11026 CA3         3.8200   11.2200   59.6500 ca       502 PET     -0.078542
  11027 CA4         3.1200   10.9900   62.3400 ca       502 PET     -0.078542
  11028 CA5         4.3300   11.5500   61.9300 ca       502 PET     -0.108363
  11029 CA6         4.7100   11.6300   60.6100 ca       502 PET     -0.163574
  11030 C2          6.0700   12.1600   60.1500 c        502 PET      0.825469
  11031 C3          7.8400   13.6900   60.5700 c3       502 PET      0.058627
  11032 C4          8.4200   14.3500   61.8400 c3       502 PET      0.058627
  11033 O1         -0.0900    9.9000   60.8300 os       502 PET     -0.411922
  11034 O2          0.4600   10.0600   63.0900 o        502 PET     -0.591068
  11035 O3          6.3400   12.2200   58.9400 o        502 PET     -0.591068
  11036 O4          6.8000   12.7400   61.1500 os       502 PET     -0.411922
  11037 HA2         1.9000   10.3500   59.2200 ha       502 PET      0.129090
  11038 HA3         4.0500   11.2800   58.5900 ha       502 PET      0.145907
  11039 HA4         2.9600   10.8500   63.4100 ha       502 PET      0.145907
  11040 HA5         5.0700   11.9300   62.6300 ha       502 PET      0.129090
  11041 H31         8.6000   13.1000   60.0500 h1       502 PET      0.097188
  11042 H32         7.4900   14.4800   59.9000 h1       502 PET      0.097188
  11043 H41         7.8700   14.0000   62.7100 h1       502 PET      0.097188
  11044 H42         8.3700   15.4300   61.6900 h1       502 PET      0.097188
  11045 C1         10.4400   14.0100   63.1100 c        503 PET      0.825469
  11046 CA1        11.9100   13.6500   63.1400 ca       503 PET     -0.163574
  11047 CA2        12.5200   13.6200   64.4200 ca       503 PET     -0.108363
  11048 CA3        13.9100   13.5000   64.4300 ca       503 PET     -0.078542
  11049 CA4        12.7100   13.7400   62.0000 ca       503 PET     -0.078542
  11050 CA5        14.1100   13.5700   62.0600 ca       503 PET     -0.108363
  11051 CA6        14.7400   13.3900   63.3400 ca       503 PET     -0.163574
  11052 C2         16.2100   13.2800   63.4600 c        503 PET      0.825469
  11053 C3         18.2800   13.4900   62.0800 c3       503 PET      0.058627
  11054 C4         18.6900   14.9200   62.5400 c3       503 PET      0.058627
  11055 O1          9.8600   14.0400   61.8800 os       503 PET     -0.411922
  11056 O2          9.7700   14.3700   64.0900 o        503 PET     -0.591068
  11057 O3         16.8100   13.3100   64.5400 o        503 PET     -0.591068
  11058 O4         16.8500   13.2100   62.2500 os       503 PET     -0.411922
  11059 HA2        11.9300   13.8100   65.3100 ha       503 PET      0.129090
  11060 HA3        14.4200   13.4300   65.3800 ha       503 PET      0.145907
  11061 HA4        12.3900   13.8500   60.9600 ha       503 PET      0.145907
  11062 HA5        14.6200   13.3700   61.1300 ha       503 PET      0.129090
  11063 H31        18.8100   12.8000   62.7500 h1       503 PET      0.097188
  11064 H32        18.5400   13.2900   61.0300 h1       503 PET      0.097188
  11065 H41        18.5800   15.0200   63.6300 h1       503 PET      0.097188
  11066 H42        17.9900   15.5400   61.9700 h1       503 PET      0.097188
  11067 C1         20.5000   16.3800   62.8400 c        504 PET      0.825469
  11068 CA1        22.0100   16.5500   62.8300 ca       504 PET     -0.163574
  11069 CA2        22.6800   15.6900   61.9700 ca       504 PET     -0.108363
  11070 CA3        24.0700   15.8300   61.7400 ca       504 PET     -0.078542
  11071 CA4        22.7100   17.5900   63.4700 ca       504 PET     -0.078542
  11072 CA5        24.1200   17.7100   63.2300 ca       504 PET     -0.108363
  11073 CA6        24.8300   16.8500   62.3400 ca       504 PET     -0.163574
  11074 C2         26.3100   16.9700   61.9700 c        504 PET      0.825469
  11075 C3         28.3600   18.2700   62.4500 c3       504 PET      0.058627
  11076 C4         29.2800   17.1000   62.6600 c3       504 PET      0.058627
  11077 O1         20.0600   15.2900   62.2400 os       504 PET     -0.411922
  11078 O2         19.7500   17.1900   63.4400 o        504 PET     -0.591068
  11079 O3         26.8300   16.3900   61.0000 o        504 PET     -0.591068
  11080 O4         26.9500   17.9700   62.6500 os       504 PET     -0.411922
  11081 HA2        22.1200   14.9200   61.4500 ha       504 PET      0.129090
  11082 HA3        24.4800   15.0500   61.1000 ha       504 PET      0.145907
  11083 HA4        22.1700   18.3100   64.0800 ha       504 PET      0.145907
  11084 HA5        24.6400   18.5600   63.6700 ha       504 PET      0.129090
  11085 H31        28.4200   18.5200   61.3900 h1       504 PET      0.097188
  11086 H32        28.5800   19.1500   63.0700 h1       504 PET      0.097188
  11087 H41        28.9800   16.2400   62.0500 h1       504 PET      0.097188
  11088 H42        29.3400   16.7200   63.6900 h1       504 PET      0.097188
  11089 C1         31.6400   16.6200   62.0400 c        505 PET      0.825469
  11090 CA1        32.9800   17.3900   61.7600 ca       505 PET     -0.163574
  11091 CA2        34.1900   16.6300   61.5900 ca       505 PET     -0.108363
  11092 CA3        35.4200   17.2900   61.5400 ca       505 PET     -0.078542
  11093 CA4        33.0300   18.8300   61.7300 ca       505 PET     -0.078542
  11094 CA5        34.2600   19.4500   61.6900 ca       505 PET     -0.108363
  11095 CA6        35.4800   18.7200   61.5000 ca       505 PET     -0.163574
  11096 C2         36.7700   19.4100   61.3400 c        505 PET      0.825469
  11097 C3         39.1700   19.2000   61.5600 c3       505 PET      0.058627
  11098 C4         39.4700   19.9800   62.8400 c3       505 PET      0.058627
  11099 O1         30.5900   17.4700   62.2600 os       505 PET     -0.411922
  11100 O2         31.4900   15.3700   62.1400 o        505 PET     -0.591068
  11101 O3         36.9500   20.5800   61.1400 o        505 PET     -0.591068
  11102 O4         37.8200   18.5600   61.5900 os       505 PET     -0.411922
  11103 HA2        34.2300   15.5500   61.7100 ha       505 PET      0.129090
  11104 HA3        36.3000   16.7000   61.3200 ha       505 PET      0.145907
  11105 HA4        32.1500   19.4400   61.8900 ha       505 PET      0.145907
  11106 HA5        34.3700   20.4700   62.0400 ha       505 PET      0.129090
  11107 H31        39.9100   18.4100   61.3600 h1       505 PET      0.097188
  11108 H32        39.2800   19.9300   60.7500 h1       505 PET      0.097188
  11109 H41        38.5800   20.1000   63.4700 h1       505 PET      0.097188
  11110 H42        39.7700   21.0000   62.5700 h1       505 PET      0.097188
  11111 C1         41.7200   19.0700   63.3400 c        506 PET      0.825469
  11112 CA1        42.5000   18.3900   64.4300 ca       506 PET     -0.163574
  11113 CA2        43.7900   17.9000   64.0800 ca       506 PET     -0.108363
  11114 CA3        44.5100   17.2000   65.0000 ca       506 PET     -0.078542
  11115 CA4        41.9300   18.2200   65.7200 ca       506 PET     -0.078542
  11116 CA5        42.7500   17.5500   66.6800 ca       506 PET     -0.108363
  11117 CA6        44.0100   17.0700   66.3600 ca       506 PET     -0.163574
  11118 C2         44.9200   16.5700   67.3900 c        506 PET      0.825469
  11119 C3         46.6400   15.0300   67.7400 c3       506 PET      0.058627
  11120 C4         47.7900   16.0900   67.8300 c3       506 PET      0.058627
  11121 O1         40.4400   19.2200   63.6400 os       506 PET     -0.411922
  11122 O2         42.2600   19.5400   62.3900 o        506 PET     -0.591068
  11123 O3         44.8100   16.8200   68.5700 o        506 PET     -0.591068
  11124 O4         45.6600   15.5600   66.9000 os       506 PET     -0.411922
  11125 HA2        44.1800   18.0500   63.0800 ha       506 PET      0.129090
  11126 HA3        45.4300   16.7000   64.7200 ha       506 PET      0.145907
  11127 HA4        41.0300   18.6900   66.0900 ha       506 PET      0.145907
  11128 HA5        42.5200   17.5700   67.7400 ha       506 PET      0.129090
  11129 H31        46.2800   14.7700   68.7400 h1       506 PET      0.097188
  11130 H32        46.9900   14.0600   67.3900 h1       506 PET      0.097188
  11131 H41        47.4000   16.8800   68.4800 h1       506 PET      0.097188
  11132 H42        47.9000   16.6200   66.8700 h1       506 PET      0.097188
  11133 C1         50.1200   16.4500   68.3300 c        507 PET      0.825469
  11134 CA1        51.5100   15.9000   68.7000 ca       507 PET     -0.163574
  11135 CA2        52.6600   16.7300   68.7600 ca       507 PET     -0.108363
  11136 CA3        53.9200   16.2100   69.0900 ca       507 PET     -0.078542
  11137 CA4        51.7000   14.4600   68.8800 ca       507 PET     -0.078542
  11138 CA5        53.0000   13.9800   69.0600 ca       507 PET     -0.108363
  11139 CA6        54.0900   14.8000   69.1300 ca       507 PET     -0.163574
  11140 C2         55.4800   14.1900   69.1000 c        507 PET      0.825469
  11141 C3         57.8100   14.6400   68.7100 c3       507 PET      0.058627
  11142 C4         58.7700   15.8000   68.2800 c3       507 PET      0.058627
  11143 O1         49.1000   15.5700   68.2800 os       507 PET     -0.411922
  11144 O2         49.9100   17.6300   68.0900 o        507 PET     -0.591068
  11145 O3         55.6600   12.9500   69.0500 o        507 PET     -0.591068
  11146 O4         56.4400   15.0600   68.9400 os       507 PET     -0.411922
  11147 HA2        52.5900   17.7900   68.5100 ha       507 PET      0.129090
  11148 HA3        54.8000   16.8200   69.1900 ha       507 PET      0.145907
  11149 HA4        50.8400   13.8300   68.6800 ha       507 PET      0.145907
  11150 HA5        53.0600   12.9000   69.1200 ha       507 PET      0.129090
  11151 H31        58.3000   14.1900   69.5800 h1       507 PET      0.097188
  11152 H32        57.8800   13.8400   67.9600 h1       507 PET      0.097188
  11153 H41        59.5700   15.2700   67.7500 h1       507 PET      0.097188
  11154 H42        59.0900   16.3600   69.1700 h1       507 PET      0.097188
  11155 C1         57.3200   17.7000   67.8600 c        508 PET      0.825469
  11156 CA1        56.4800   18.3600   66.7500 ca       508 PET     -0.163574
  11157 CA2        55.0800   18.6200   66.9000 ca       508 PET     -0.108363
  11158 CA3        54.3000   18.9900   65.7800 ca       508 PET     -0.078542
  11159 CA4        57.0100   18.3200   65.4600 ca       508 PET     -0.078542
  11160 CA5        56.1700   18.7500   64.3500 ca       508 PET     -0.108363
  11161 CA6        54.8900   19.0900   64.5100 ca       508 PET     -0.163574
  11162 C2         53.9900   19.5600   63.3700 c        508 PET      0.825469
  11163 C3         54.1400   20.6500   61.2800 c3       508 PET      0.058627
  11164 C4         55.1300   20.8600   60.0800 c3       508 PET      0.058627
  11165 O1         58.1500   16.7100   67.3600 os       508 PET     -0.411922
  11166 O2         57.2700   17.9600   69.0400 o        508 PET     -0.591068
  11167 O3         52.7600   19.6800   63.5400 o        508 PET     -0.591068
  11168 O4         54.7400   19.7700   62.2900 os       508 PET     -0.411922
  11169 HA2        54.6500   18.5600   67.9000 ha       508 PET      0.129090
  11170 HA3        53.2400   19.2400   65.8400 ha       508 PET      0.145907
  11171 HA4        58.0600   18.0900   65.3400 ha       508 PET      0.145907
  11172 HA5        56.5900   18.9400   63.3600 ha       508 PET      0.129090
  11173 H31        53.2100   20.2200   60.8800 h1       508 PET      0.097188
  11174 H32        53.9100   21.6000   61.7800 h1       508 PET      0.097188
  11175 H41        54.9400   21.6200   59.3100 h1       508 PET      0.097188
  11176 H42        55.1300   19.9600   59.4600 h1       508 PET      0.097188
  11177 C1         57.5800   20.9100   60.0800 c        509 PET      0.825469
  11178 CA1        58.8300   21.0200   60.9800 ca       509 PET     -0.163574
  11179 CA2        60.0800   21.1700   60.5100 ca       509 PET     -0.108363
  11180 CA3        61.1600   21.2800   61.3500 ca       509 PET     -0.078542
  11181 CA4        58.6700   20.8900   62.3400 ca       509 PET     -0.078542
  11182 CA5        59.7400   21.0200   63.2800 ca       509 PET     -0.108363
  11183 CA6        60.9900   21.2600   62.7600 ca       509 PET     -0.163574
  11184 C2         62.1100   21.5000   63.7500 c        509 PET      0.825469
  11185 C3         64.4000   22.4100   63.9800 c3       509 PET      0.058627
  11186 C4         63.9400   23.8100   64.4800 c3       509 PET      0.058627
  11187 O1         56.4400   21.0100   60.7200 os       509 PET     -0.411922
  11188 O2         57.7100   20.8000   58.8700 o        509 PET     -0.591068
  11189 O3         62.0000   21.1200   64.9000 o        509 PET     -0.591068
  11190 O4         63.2900   21.9400   63.1800 os       509 PET     -0.411922
  11191 HA2        60.2400   21.1800   59.4400 ha       509 PET      0.129090
  11192 HA3        62.2000   21.2700   61.0400 ha       509 PET      0.145907
  11193 HA4        57.6700   20.7400   62.7500 ha       509 PET      0.145907
  11194 HA5        59.5200   20.9800   64.3400 ha       509 PET      0.129090
  11195 H31        64.6000   21.8200   64.8800 h1       509 PET      0.097188
  11196 H32        65.3200   22.5700   63.4100 h1       509 PET      0.097188
  11197 H41        63.3100   23.6400   65.3700 h1       509 PET      0.097188
  11198 H42        63.3800   24.3400   63.7000 h1       509 PET      0.097188
  11199 C1         64.9900   25.9000   65.1000 c        510 PET      0.825469
  11200 CA1        66.2200   26.4500   65.7700 ca       510 PET     -0.163574
  11201 CA2        66.9600   25.6400   66.6600 ca       510 PET     -0.108363
  11202 CA3        68.1200   26.1200   67.2400 ca       510 PET     -0.078542
  11203 CA4        66.6500   27.7700   65.5400 ca       510 PET     -0.078542
  11204 CA5        67.8100   28.2500   66.1100 ca       510 PET     -0.108363
  11205 CA6        68.6100   27.4500   67.0200 ca       510 PET     -0.163574
  11206 C2         69.8700   27.9500   67.5900 c        510 PET      0.825469
  11207 C3         71.2000   29.9500   67.9600 c3       510 PET      0.058627
  11208 C4         70.5800   30.5400   69.2300 c3       510 PET      0.058627
  11209 O1         65.1200   24.5600   64.8700 os       510 PET     -0.411922
  11210 O2         63.9500   26.5600   64.9400 o        510 PET     -0.591068
  11211 O3         70.6100   27.2400   68.3000 o        510 PET     -0.591068
  11212 O4         70.2400   29.2000   67.2000 os       510 PET     -0.411922
  11213 HA2        66.6900   24.5900   66.7100 ha       510 PET      0.129090
  11214 HA3        68.6700   25.5100   67.9600 ha       510 PET      0.145907
  11215 HA4        66.0700   28.4000   64.8700 ha       510 PET      0.145907
  11216 HA5        68.1500   29.2200   65.7900 ha       510 PET      0.129090
  11217 H31        72.1400   29.4300   68.1900 h1       510 PET      0.097188
  11218 H32        71.4100   30.8300   67.3400 h1       510 PET      0.097188
  11219 H41        70.5200   29.7300   69.9700 h1       510 PET      0.097188
  11220 H42        69.6000   30.9600   68.9800 h1       510 PET      0.097188
  11221 C1         52.0000   50.4100   68.3000 c        511 PET      0.825469
  11222 CA1        53.2300   49.6200   67.9500 ca       511 PET     -0.163574
  11223 CA2        54.4500   50.0200   68.4400 ca       511 PET     -0.108363
  11224 CA3        55.6700   49.3100   68.1700 ca       511 PET     -0.078542
  11225 CA4        53.1500   48.5300   67.1000 ca       511 PET     -0.078542
  11226 CA5        54.3900   47.9000   66.6800 ca       511 PET     -0.108363
  11227 CA6        55.6600   48.2900   67.2000 ca       511 PET     -0.163574
  11228 C2         56.9300   47.6500   66.7400 c        511 PET      0.825469
  11229 C3         59.2700   47.4200   67.2200 c3       511 PET      0.058627
  11230 C4         59.9900   47.7200   68.5100 c3       511 PET      0.058627
  11231 O1         52.1100   51.1900   69.3500 os       511 PET     -0.411922
  11232 O2         50.9400   50.2400   67.6700 o        511 PET     -0.591068
  11233 O3         56.9600   46.8300   65.8400 o        511 PET     -0.591068
  11234 O4         58.0300   48.0500   67.4200 os       511 PET     -0.411922
  11235 HA2        54.5000   50.9500   68.9900 ha       511 PET      0.129090
  11236 HA3        56.6000   49.7000   68.5800 ha       511 PET      0.145907
  11237 HA4        52.1700   48.2500   66.7300 ha       511 PET      0.145907
  11238 HA5        54.3800   47.1200   65.9200 ha       511 PET      0.129090
  11239 H31        59.0800   46.3400   67.1500 h1       511 PET      0.097188
  11240 H32        59.8400   47.7500   66.3400 h1       511 PET      0.097188
  11241 H41        59.2900   47.4100   69.3100 h1       511 PET      0.097188
  11242 H42        60.3200   48.7600   68.6500 h1       511 PET      0.097188
  11243 C1         61.0100   45.5400   68.8800 c        512 PET      0.825469
  11244 CA1        62.3700   44.8000   68.7500 ca       512 PET     -0.163574
  11245 CA2        63.5800   45.5700   68.7700 ca       512 PET     -0.108363
  11246 CA3        64.8500   44.8900   68.7700 ca       512 PET     -0.078542
  11247 CA4        62.4300   43.4500   68.7800 ca       512 PET     -0.078542
  11248 CA5        63.6400   42.7600   68.6800 ca       512 PET     -0.108363
  11249 CA6        64.8900   43.4600   68.7000 ca       512 PET     -0.163574
  11250 C2         66.1600   42.7000   68.2900 c        512 PET      0.825469
  11251 C3         68.5500   43.1100   67.7500 c3       512 PET      0.058627
  11252 C4         69.2200   42.0200   68.6200 c3       512 PET      0.058627
  11253 O1         61.1100   46.8500   68.5000 os       512 PET     -0.411922
  11254 O2         60.0700   44.9500   69.3400 o        512 PET     -0.591068
  11255 O3         66.1900   41.5300   67.9800 o        512 PET     -0.591068
  11256 O4         67.2500   43.5600   68.2200 os       512 PET     -0.411922
  11257 HA2        63.6000   46.6600   68.7500 ha       512 PET      0.129090
  11258 HA3        65.8000   45.3900   68.8600 ha       512 PET      0.145907
  11259 HA4        61.4900   42.9200   68.8900 ha       512 PET      0.145907
  11260 HA5        63.6500   41.6700   68.7500 ha       512 PET      0.129090
  11261 H31        68.4600   42.6800   66.7500 h1       512 PET      0.097188
  11262 H32        69.1600   44.0300   67.7400 h1       512 PET      0.097188
  11263 H41        68.7700   41.0500   68.3800 h1       512 PET      0.097188
  11264 H42        69.0700   42.0700   69.7100 h1       512 PET      0.097188
  11265 C1         71.3700   40.9300   68.7800 c        513 PET      0.825469
  11266 CA1        72.8800   41.1700   69.0000 ca       513 PET     -0.163574
  11267 CA2        73.4800   42.4300   68.9400 ca       513 PET     -0.108363
  11268 CA3        74.9000   42.5200   69.0500 ca       513 PET     -0.078542
  11269 CA4        73.6400   40.0000   69.1500 ca       513 PET     -0.078542
  11270 CA5        75.0300   40.1200   69.1700 ca       513 PET     -0.108363
  11271 CA6        75.6700   41.3600   69.0200 ca       513 PET     -0.163574
  11272 C2         77.2000   41.4100   68.8900 c        513 PET      0.825469
  11273 C3         79.1400   40.0000   68.7200 c3       513 PET      0.058627
  11274 C4         79.3300   38.4200   68.6000 c3       513 PET      0.058627
  11275 O1         70.6200   42.0200   68.3400 os       513 PET     -0.411922
  11276 O2         70.8500   39.9200   69.1900 o        513 PET     -0.591068
  11277 O3         77.8300   42.3700   69.1800 o        513 PET     -0.591068
  11278 O4         77.7400   40.1900   68.7000 os       513 PET     -0.411922
  11279 HA2        72.8200   43.2700   68.7600 ha       513 PET      0.129090
  11280 HA3        75.2600   43.5400   68.9200 ha       513 PET      0.145907
  11281 HA4        73.1600   39.0300   69.2100 ha       513 PET      0.145907
  11282 HA5        75.5900   39.2000   69.2700 ha       513 PET      0.129090
  11283 H31        79.6400   40.4900   67.8700 h1       513 PET      0.097188
  11284 H32        79.6100   40.3300   69.6500 h1       513 PET      0.097188
  11285 H41        78.9900   38.1900   67.5900 h1       513 PET      0.097188
  11286 H42        78.6500   37.9800   69.3400 h1       513 PET      0.097188
  11287 C1          1.5400   38.5500   67.7700 c        514 PET      0.825469
  11288 CA1         2.9200   38.0900   67.8900 ca       514 PET     -0.163574
  11289 CA2         3.8900   38.7400   67.1700 ca       514 PET     -0.108363
  11290 CA3         5.1700   38.3100   67.0900 ca       514 PET     -0.078542
  11291 CA4         3.3300   37.1000   68.8000 ca       514 PET     -0.078542
  11292 CA5         4.6500   36.6500   68.8200 ca       514 PET     -0.108363
  11293 CA6         5.6600   37.2600   68.0000 ca       514 PET     -0.163574
  11294 C2          7.0600   36.7900   67.9300 c        514 PET      0.825469
  11295 C3          8.5900   35.0700   68.7400 c3       514 PET      0.058627
  11296 C4          8.5300   33.5100   68.9700 c3       514 PET      0.058627
  11297 O1          0.7500   38.2000   68.8000 os       514 PET     -0.411922
  11298 O2          1.1400   39.0800   66.7300 o        514 PET     -0.591068
  11299 O3          7.8500   37.4700   67.3200 o        514 PET     -0.591068
  11300 O4          7.2700   35.5100   68.4800 os       514 PET     -0.411922
  11301 HA2         3.6200   39.6400   66.6300 ha       514 PET      0.129090
  11302 HA3         5.8600   38.8300   66.4400 ha       514 PET      0.145907
  11303 HA4         2.6400   36.4800   69.3600 ha       514 PET      0.145907
  11304 HA5         4.8100   35.7900   69.4700 ha       514 PET      0.129090
  11305 H31         9.2700   35.1900   67.8900 h1       514 PET      0.097188
  11306 H32         9.1100   35.5900   69.5500 h1       514 PET      0.097188
  11307 H41         7.8500   33.0200   68.2600 h1       514 PET      0.097188
  11308 H42         8.0500   33.2100   69.9100 h1       514 PET      0.097188
  11309 C1         10.3100   31.8700   69.0000 c        515 PET      0.825469
  11310 CA1        11.8700   31.7100   68.8800 ca       515 PET     -0.163574
  11311 CA2        12.6200   32.8800   68.5700 ca       515 PET     -0.108363
  11312 CA3        13.9800   32.7600   68.3100 ca       515 PET     -0.078542
  11313 CA4        12.5100   30.4400   68.9900 ca       515 PET     -0.078542
  11314 CA5        13.8600   30.3300   68.6900 ca       515 PET     -0.108363
  11315 CA6        14.5900   31.5000   68.3600 ca       515 PET     -0.163574
  11316 C2         16.0600   31.3800   68.2300 c        515 PET      0.825469
  11317 C3         17.9400   29.8700   68.0300 c3       515 PET      0.058627
  11318 C4         18.8600   30.4300   69.1600 c3       515 PET      0.058627
  11319 O1          9.9600   33.1400   68.9300 os       515 PET     -0.411922
  11320 O2          9.5400   30.9400   69.2300 o        515 PET     -0.591068
  11321 O3         16.8300   32.3500   68.1800 o        515 PET     -0.591068
  11322 O4         16.5400   30.1000   68.2000 os       515 PET     -0.411922
  11323 HA2        12.1800   33.8600   68.4500 ha       515 PET      0.129090
  11324 HA3        14.6600   33.6000   68.1900 ha       515 PET      0.145907
  11325 HA4        12.0300   29.5400   69.3800 ha       515 PET      0.145907
  11326 HA5        14.3600   29.3700   68.7200 ha       515 PET      0.129090
  11327 H31        18.1000   28.7900   68.0900 h1       515 PET      0.097188
  11328 H32        18.2700   30.1900   67.0300 h1       515 PET      0.097188
  11329 H41        18.7500   29.8500   70.0900 h1       515 PET      0.097188
  11330 H42        18.6200   31.4900   69.3700 h1       515 PET      0.097188
  11331 C1         20.9100   29.2300   68.7900 c        516 PET      0.825469
  11332 CA1        22.4000   29.2800   68.5900 ca       516 PET     -0.163574
  11333 CA2        23.1800   28.1300   68.4500 ca       516 PET     -0.108363
  11334 CA3        24.5900   28.1500   68.3200 ca       516 PET     -0.078542
  11335 CA4        23.0300   30.4800   68.7000 ca       516 PET     -0.078542
  11336 CA5        24.4000   30.5600   68.6500 ca       516 PET     -0.108363
  11337 CA6        25.1900   29.4500   68.4100 ca       516 PET     -0.163574
  11338 C2         26.6900   29.6800   68.3100 c        516 PET      0.825469
  11339 C3         28.8700   28.7000   68.4900 c3       516 PET      0.058627
  11340 C4         29.5400   29.1300   67.2000 c3       516 PET      0.058627
  11341 O1         20.2800   30.3900   68.7900 os       516 PET     -0.411922
  11342 O2         20.3100   28.2000   69.1700 o        516 PET     -0.591068
  11343 O3         27.1900   30.7700   68.2300 o        516 PET     -0.591068
  11344 O4         27.4700   28.5500   68.3800 os       516 PET     -0.411922
  11345 HA2        22.7000   27.1600   68.3200 ha       516 PET      0.129090
  11346 HA3        25.1500   27.2200   68.1900 ha       516 PET      0.145907
  11347 HA4        22.4300   31.3700   68.8000 ha       516 PET      0.145907
  11348 HA5        24.8200   31.5600   68.6100 ha       516 PET      0.129090
  11349 H31        29.0700   29.4100   69.3000 h1       516 PET      0.097188
  11350 H32        29.2400   27.7300   68.8300 h1       516 PET      0.097188
  11351 H41        29.5300   30.2100   67.0100 h1       516 PET      0.097188
  11352 H42        28.9500   28.6900   66.3900 h1       516 PET      0.097188
  11353 C1         31.7300   29.3500   68.1200 c        517 PET      0.825469
  11354 CA1        33.1100   28.7700   68.0300 ca       517 PET     -0.163574
  11355 CA2        34.1200   29.4600   68.7700 ca       517 PET     -0.108363
  11356 CA3        35.4800   29.0000   68.7200 ca       517 PET     -0.078542
  11357 CA4        33.4200   27.6400   67.2600 ca       517 PET     -0.078542
  11358 CA5        34.7200   27.1800   67.3400 ca       517 PET     -0.108363
  11359 CA6        35.7100   27.8200   68.0200 ca       517 PET     -0.163574
  11360 C2         37.0900   27.1600   68.0400 c        517 PET      0.825469
  11361 C3         38.3300   25.0900   67.7000 c3       517 PET      0.058627
  11362 C4         39.1200   25.3300   66.4100 c3       517 PET      0.058627
  11363 O1         30.8900   28.6900   67.2200 os       517 PET     -0.411922
  11364 O2         31.4400   30.2700   68.8500 o        517 PET     -0.591068
  11365 O3         38.0800   27.7500   68.4700 o        517 PET     -0.591068
  11366 O4         37.0500   25.8100   67.8300 os       517 PET     -0.411922
  11367 HA2        33.9100   30.2800   69.4500 ha       517 PET      0.129090
  11368 HA3        36.2800   29.5200   69.2500 ha       517 PET      0.145907
  11369 HA4        32.7400   27.0500   66.6600 ha       517 PET      0.145907
  11370 HA5        34.9500   26.2700   66.8000 ha       517 PET      0.129090
  11371 H31        39.0400   25.2800   68.5200 h1       517 PET      0.097188
  11372 H32        38.1300   24.0200   67.8100 h1       517 PET      0.097188
  11373 H41        39.0300   26.3800   66.1000 h1       517 PET      0.097188
  11374 H42        38.8100   24.6700   65.5900 h1       517 PET      0.097188
  11375 C1         41.4800   25.1300   65.9900 c        518 PET      0.825469
  11376 CA1        42.8200   24.9700   66.6700 ca       518 PET     -0.163574
  11377 CA2        42.9300   25.0100   68.0600 ca       518 PET     -0.108363
  11378 CA3        44.1900   24.8700   68.6800 ca       518 PET     -0.078542
  11379 CA4        43.9200   24.8100   65.8500 ca       518 PET     -0.078542
  11380 CA5        45.1700   24.7000   66.4300 ca       518 PET     -0.108363
  11381 CA6        45.3000   24.6700   67.8600 ca       518 PET     -0.163574
  11382 C2         46.6700   24.6200   68.5000 c        518 PET      0.825469
  11383 C3         49.0400   25.0100   67.9300 c3       518 PET      0.058627
  11384 C4         49.5500   23.6400   68.4900 c3       518 PET      0.058627
  11385 O1         40.4500   25.0300   66.8600 os       518 PET     -0.411922
  11386 O2         41.3000   25.1700   64.7700 o        518 PET     -0.591068
  11387 O3         46.8800   24.4500   69.6800 o        518 PET     -0.591068
  11388 O4         47.6800   24.8100   67.5900 os       518 PET     -0.411922
  11389 HA2        42.1200   25.3100   68.7200 ha       518 PET      0.129090
  11390 HA3        44.2600   24.9300   69.7600 ha       518 PET      0.145907
  11391 HA4        43.8400   24.8800   64.7700 ha       518 PET      0.145907
  11392 HA5        45.9900   24.6500   65.7300 ha       518 PET      0.129090
  11393 H31        49.5900   25.2700   67.0200 h1       518 PET      0.097188
  11394 H32        49.1200   25.7900   68.7000 h1       518 PET      0.097188
  11395 H41        49.1700   22.8300   67.8500 h1       518 PET      0.097188
  11396 H42        49.2400   23.5600   69.5300 h1       518 PET      0.097188
  11397 C1         51.6700   22.5600   69.0000 c        519 PET      0.825469
  11398 CA1        53.1400   22.7800   69.0500 ca       519 PET     -0.163574
  11399 CA2        53.7000   23.9500   68.5700 ca       519 PET     -0.108363
  11400 CA3        55.0700   24.1000   68.4500 ca       519 PET     -0.078542
  11401 CA4        53.9800   21.7400   69.3700 ca       519 PET     -0.078542
  11402 CA5        55.3700   21.9000   69.2300 ca       519 PET     -0.108363
  11403 CA6        55.9300   23.0800   68.8800 ca       519 PET     -0.163574
  11404 C2         57.4500   23.2000   68.7700 c        519 PET      0.825469
  11405 C3         59.5800   21.8600   68.9200 c3       519 PET      0.058627
  11406 C4         59.7200   20.8700   67.7500 c3       519 PET      0.058627
  11407 O1         50.9500   23.6400   68.5000 os       519 PET     -0.411922
  11408 O2         51.2000   21.5400   69.4700 o        519 PET     -0.591068
  11409 O3         57.9600   24.2600   68.4600 o        519 PET     -0.591068
  11410 O4         58.1200   22.0300   69.0300 os       519 PET     -0.411922
  11411 HA2        53.1400   24.7700   68.1400 ha       519 PET      0.129090
  11412 HA3        55.5300   25.0500   68.2200 ha       519 PET      0.145907
  11413 HA4        53.6700   20.7900   69.8100 ha       519 PET      0.145907
  11414 HA5        55.9700   21.0700   69.5900 ha       519 PET      0.129090
  11415 H31        60.0600   22.8100   68.6800 h1       519 PET      0.097188
  11416 H32        59.9600   21.5000   69.8800 h1       519 PET      0.097188
  11417 H41        60.1000   21.4200   66.8800 h1       519 PET      0.097188
  11418 H42        58.7000   20.4900   67.5900 h1       519 PET      0.097188
  11419 C1         60.8600   18.6500   67.3600 c        520 PET      0.825469
  11420 CA1        61.9500   17.7300   67.8100 ca       520 PET     -0.163574
  11421 CA2        62.0500   16.4900   67.2100 ca       520 PET     -0.108363
  11422 CA3        63.0000   15.5900   67.5600 ca       520 PET     -0.078542
  11423 CA4        62.8600   18.0400   68.8100 ca       520 PET     -0.078542
  11424 CA5        63.9900   17.2300   69.0500 ca       520 PET     -0.108363
  11425 CA6        64.0300   15.9000   68.4700 ca       520 PET     -0.163574
  11426 C2         65.2400   15.0600   68.6600 c        520 PET      0.825469
  11427 C3         66.2800   13.0900   67.7700 c3       520 PET      0.058627
  11428 C4         67.0400   13.7900   66.5500 c3       520 PET      0.058627
  11429 O1         60.7300   19.8300   68.1100 os       520 PET     -0.411922
  11430 O2         60.2500   18.4900   66.3100 o        520 PET     -0.591068
  11431 O3         66.2900   15.5300   69.1100 o        520 PET     -0.591068
  11432 O4         65.1200   13.8200   68.1000 os       520 PET     -0.411922
  11433 HA2        61.2900   16.1500   66.5100 ha       520 PET      0.129090
  11434 HA3        62.9100   14.6100   67.1100 ha       520 PET      0.145907
  11435 HA4        62.7800   18.9800   69.3500 ha       520 PET      0.145907
  11436 HA5        64.7500   17.6200   69.7100 ha       520 PET      0.129090
  11437 H31        66.9900   13.0600   68.6100 h1       520 PET      0.097188
  11438 H32        65.9600   12.0700   67.5200 h1       520 PET      0.097188
  11439 H41        67.9600   13.2900   66.2300 h1       520 PET      0.097188
  11440 H42        67.4500   14.7700   66.8100 h1       520 PET      0.097188
  11441 C1         66.2900   14.6500   64.4300 c        521 PET      0.825469
  11442 CA1        65.1900   14.5800   63.3800 ca       521 PET     -0.163574
  11443 CA2        64.0500   13.7900   63.6000 ca       521 PET     -0.108363
  11444 CA3        62.9900   13.8000   62.6800 ca       521 PET     -0.078542
  11445 CA4        65.2300   15.4100   62.2400 ca       521 PET     -0.078542
  11446 CA5        64.1800   15.4600   61.3300 ca       521 PET     -0.108363
  11447 CA6        63.0200   14.6900   61.6100 ca       521 PET     -0.163574
  11448 C2         61.8400   14.7400   60.6700 c        521 PET      0.825469
  11449 C3         61.1200   16.0900   58.7800 c3       521 PET      0.058627
  11450 C4         61.7500   16.2000   57.3500 c3       521 PET      0.058627
  11451 O1         66.0600   13.8700   65.4500 os       521 PET     -0.411922
  11452 O2         67.2600   15.3600   64.3300 o        521 PET     -0.591068
  11453 O3         60.7500   14.2400   60.8200 o        521 PET     -0.591068
  11454 O4         62.1300   15.6200   59.6800 os       521 PET     -0.411922
  11455 HA2        63.9600   13.1800   64.4900 ha       521 PET      0.129090
  11456 HA3        62.0900   13.2300   62.8900 ha       521 PET      0.145907
  11457 HA4        66.0000   16.1800   62.1900 ha       521 PET      0.145907
  11458 HA5        64.3700   16.1900   60.5500 ha       521 PET      0.129090
  11459 H31        60.3100   15.3600   58.7000 h1       521 PET      0.097188
  11460 H32        60.7000   17.0100   59.1800 h1       521 PET      0.097188
  11461 H41        61.4200   17.1200   56.8600 h1       521 PET      0.097188
  11462 H42        61.4300   15.3100   56.7900 h1       521 PET      0.097188
  11463 C1         63.7900   17.4600   57.9600 c        522 PET      0.825469
  11464 CA1        65.2100   17.1500   58.2500 ca       522 PET     -0.163574
  11465 CA2        65.7600   15.8500   58.0600 ca       522 PET     -0.108363
  11466 CA3        67.0500   15.6100   58.5300 ca       522 PET     -0.078542
  11467 CA4        65.9400   18.0900   58.9900 ca       522 PET     -0.078542
  11468 CA5        67.2600   17.8900   59.4300 ca       522 PET     -0.108363
  11469 CA6        67.8500   16.5800   59.2300 ca       522 PET     -0.163574
  11470 C2         69.2100   16.1700   59.8200 c        522 PET      0.825469
  11471 C3         71.3100   16.8900   60.7200 c3       522 PET      0.058627
  11472 C4         71.0800   16.8700   62.2500 c3       522 PET      0.058627
  11473 O1         63.1800   16.2700   57.5000 os       522 PET     -0.411922
  11474 O2         63.2500   18.5100   58.1000 o        522 PET     -0.591068
  11475 O3         69.4700   15.0200   60.1600 o        522 PET     -0.591068
  11476 O4         70.1400   17.1600   60.0000 os       522 PET     -0.411922
  11477 HA2        65.2200   15.0500   57.5500 ha       522 PET      0.129090
  11478 HA3        67.4600   14.6200   58.3500 ha       522 PET      0.145907
  11479 HA4        65.4600   19.0400   59.2100 ha       522 PET      0.145907
  11480 HA5        67.7800   18.6500   60.0100 ha       522 PET      0.129090
  11481 H31        71.8600   15.9900   60.4100 h1       522 PET      0.097188
  11482 H32        72.0200   17.6900   60.4800 h1       522 PET      0.097188
  11483 H41        70.6700   15.9100   62.5600 h1       522 PET      0.097188
  11484 H42        70.4100   17.6700   62.6000 h1       522 PET      0.097188
  11485 C1         73.3900   16.1000   62.9300 c        523 PET      0.825469
  11486 CA1        74.5000   16.3600   63.8600 ca       523 PET     -0.163574
  11487 CA2        74.3700   17.2400   64.9300 ca       523 PET     -0.108363
  11488 CA3        75.4900   17.4900   65.7700 ca       523 PET     -0.078542
  11489 CA4        75.7200   15.6800   63.6500 ca       523 PET     -0.078542
  11490 CA5        76.8900   15.9600   64.4600 ca       523 PET     -0.108363
  11491 CA6        76.7200   16.9700   65.4900 ca       523 PET     -0.163574
  11492 C2         77.9300   17.3300   66.3900 c        523 PET      0.825469
  11493 C3         80.3300   17.1400   66.7200 c3       523 PET      0.058627
  11494 C4         80.1300   16.6900   68.1800 c3       523 PET      0.058627
  11495 O1         72.3700   17.1000   62.9000 os       523 PET     -0.411922
  11496 O2         73.2700   15.0800   62.2900 o        523 PET     -0.591068
  11497 O3         77.8100   18.1100   67.3300 o        523 PET     -0.591068
  11498 O4         79.1300   16.7400   66.0200 os       523 PET     -0.411922
  11499 HA2        73.4300   17.6900   65.2300 ha       523 PET      0.129090
  11500 HA3        75.4200   18.2000   66.5900 ha       523 PET      0.145907
  11501 HA4        75.8700   14.9600   62.8600 ha       523 PET      0.145907
  11502 HA5        77.8200   15.4500   64.2300 ha       523 PET      0.129090
  11503 H31        81.1300   16.6000   66.1900 h1       523 PET      0.097188
  11504 H32        80.4300   18.2200   66.6300 h1       523 PET      0.097188
  11505 H41        79.3000   16.0000   68.3400 h1       523 PET      0.097188
  11506 H42        80.0100   17.5900   68.7900 h1       523 PET      0.097188
  11507 C1          2.5000   16.6200   68.6900 c        524 PET      0.825469
  11508 CA1         3.7300   15.8400   68.7300 ca       524 PET     -0.163574
  11509 CA2         3.6600   14.4400   68.7500 ca       524 PET     -0.108363
  11510 CA3         4.8700   13.6800   68.8200 ca       524 PET     -0.078542
  11511 CA4         4.9800   16.4700   68.6500 ca       524 PET     -0.078542
  11512 CA5         6.1700   15.7400   68.6000 ca       524 PET     -0.108363
  11513 CA6         6.1500   14.3200   68.7500 ca       524 PET     -0.163574
  11514 C2          7.3700   13.6300   68.6400 c        524 PET      0.825469
  11515 C3          8.3300   11.5900   67.6600 c3       524 PET      0.058627
  11516 C4          9.2400   12.2800   66.6100 c3       524 PET      0.058627
  11517 O1          1.3000   15.9300   68.5100 os       524 PET     -0.411922
  11518 O2          2.5800   17.8000   68.6300 o        524 PET     -0.591068
  11519 O3          8.4600   14.0700   68.9500 o        524 PET     -0.591068
  11520 O4          7.2200   12.4000   67.9600 os       524 PET     -0.411922
  11521 HA2         2.7400   13.8700   68.7800 ha       524 PET      0.129090
  11522 HA3         4.8300   12.6000   68.7600 ha       524 PET      0.145907
  11523 HA4         5.0200   17.5500   68.5000 ha       524 PET      0.145907
  11524 HA5         7.1000   16.2800   68.4500 ha       524 PET      0.129090
  11525 H31         8.9400   11.4200   68.5500 h1       524 PET      0.097188
  11526 H32         7.9400   10.6300   67.3000 h1       524 PET      0.097188
  11527 H41         9.2500   13.3600   66.7900 h1       524 PET      0.097188
  11528 H42         8.8300   12.0000   65.6400 h1       524 PET      0.097188
  11529 C1         11.0400   10.5300   66.5600 c        525 PET      0.825469
  11530 CA1        12.6000   10.3800   66.4800 ca       525 PET     -0.163574
  11531 CA2        13.5700   11.1400   67.1400 ca       525 PET     -0.108363
  11532 CA3        14.9200   11.0100   66.8000 ca       525 PET     -0.078542
  11533 CA4        13.0400    9.6200   65.3700 ca       525 PET     -0.078542
  11534 CA5        14.3600    9.5900   64.9500 ca       525 PET     -0.108363
  11535 CA6        15.3300   10.2400   65.7100 ca       525 PET     -0.163574
  11536 C2         16.7000   10.2600   65.2800 c        525 PET      0.825469
  11537 C3         18.9700   10.7700   66.2100 c3       525 PET      0.058627
  11538 C4         19.2700   12.0200   65.4700 c3       525 PET      0.058627
  11539 O1         10.6700   11.8500   66.7500 os       525 PET     -0.411922
  11540 O2         10.2700    9.6100   66.4300 o        525 PET     -0.591068
  11541 O3         17.0800    9.9200   64.1600 o        525 PET     -0.591068
  11542 O4         17.5500   10.6500   66.3200 os       525 PET     -0.411922
  11543 HA2        13.3100   11.8200   67.9500 ha       525 PET      0.129090
  11544 HA3        15.6600   11.5500   67.3900 ha       525 PET      0.145907
  11545 HA4        12.3500    9.0200   64.8000 ha       525 PET      0.145907
  11546 HA5        14.6600    8.9800   64.1000 ha       525 PET      0.129090
  11547 H31        19.4800   10.9700   67.1700 h1       525 PET      0.097188
  11548 H32        19.2800    9.9700   65.5400 h1       525 PET      0.097188
  11549 H41        18.7200   12.7300   66.1000 h1       525 PET      0.097188
  11550 H42        18.7900   11.9200   64.4900 h1       525 PET      0.097188
  11551 C1         21.2600   13.4100   65.4000 c        526 PET      0.825469
  11552 CA1        22.7900   13.4700   65.2900 ca       526 PET     -0.163574
  11553 CA2        23.4300   14.7700   65.5000 ca       526 PET     -0.108363
  11554 CA3        24.7400   14.9200   65.1900 ca       526 PET     -0.078542
  11555 CA4        23.5400   12.4500   64.7200 ca       526 PET     -0.078542
  11556 CA5        24.9200   12.6700   64.5200 ca       526 PET     -0.108363
  11557 CA6        25.5600   13.9200   64.7400 ca       526 PET     -0.163574
  11558 C2         27.0100   14.2200   64.2500 c        526 PET      0.825469
  11559 C3         28.8600   13.3300   62.9800 c3       526 PET      0.058627
  11560 C4         29.4800   11.9600   62.8300 c3       526 PET      0.058627
  11561 O1         20.7300   12.1200   65.4900 os       526 PET     -0.411922
  11562 O2         20.6000   14.4100   65.1700 o        526 PET     -0.591068
  11563 O3         27.4900   15.3100   64.2800 o        526 PET     -0.591068
  11564 O4         27.6100   13.1300   63.7000 os       526 PET     -0.411922
  11565 HA2        22.9500   15.6600   65.8900 ha       526 PET      0.129090
  11566 HA3        25.1400   15.8900   65.4600 ha       526 PET      0.145907
  11567 HA4        22.9600   11.6200   64.3300 ha       526 PET      0.145907
  11568 HA5        25.4900   11.9100   63.9800 ha       526 PET      0.129090
  11569 H31        28.7100   13.7700   61.9800 h1       526 PET      0.097188
  11570 H32        29.5100   13.9600   63.5900 h1       526 PET      0.097188
  11571 H41        28.9400   11.3300   62.1100 h1       526 PET      0.097188
  11572 H42        29.3200   11.5200   63.8300 h1       526 PET      0.097188
  11573 C1         31.3100   12.5000   61.3300 c        527 PET      0.825469
  11574 CA1        32.8500   12.5600   61.2600 ca       527 PET     -0.163574
  11575 CA2        33.5200   12.5000   60.0000 ca       527 PET     -0.108363
  11576 CA3        34.8400   12.7700   59.8900 ca       527 PET     -0.078542
  11577 CA4        33.6300   12.7000   62.4600 ca       527 PET     -0.078542
  11578 CA5        35.0100   12.8200   62.3300 ca       527 PET     -0.108363
  11579 CA6        35.6800   12.8300   61.1000 ca       527 PET     -0.163574
  11580 C2         37.1300   13.1000   60.9100 c        527 PET      0.825469
  11581 C3         39.2200   13.5900   62.0800 c3       527 PET      0.058627
  11582 C4         39.6000   14.7800   61.2400 c3       527 PET      0.058627
  11583 O1         30.8800   12.0700   62.5800 os       527 PET     -0.411922
  11584 O2         30.5100   12.6800   60.4100 o        527 PET     -0.591068
  11585 O3         37.6900   12.9800   59.8000 o        527 PET     -0.591068
  11586 O4         37.7600   13.4100   62.0400 os       527 PET     -0.411922
  11587 HA2        32.9400   12.4700   59.0800 ha       527 PET      0.129090
  11588 HA3        35.2700   12.7600   58.9000 ha       527 PET      0.145907
  11589 HA4        33.0800   12.6700   63.3900 ha       527 PET      0.145907
  11590 HA5        35.6100   13.0700   63.2000 ha       527 PET      0.129090
  11591 H31        39.5900   13.7900   63.0900 h1       527 PET      0.097188
  11592 H32        39.7600   12.6900   61.7600 h1       527 PET      0.097188
  11593 H41        38.9300   15.6200   61.4400 h1       527 PET      0.097188
  11594 H42        39.5600   14.5700   60.1600 h1       527 PET      0.097188
  11595 C1         41.6200   16.1200   60.7500 c        528 PET      0.825469
  11596 CA1        43.1200   16.2000   61.0700 ca       528 PET     -0.163574
  11597 CA2        43.7300   15.2000   61.8600 ca       528 PET     -0.108363
  11598 CA3        45.1200   15.1400   62.0500 ca       528 PET     -0.078542
  11599 CA4        43.9900   17.1700   60.5000 ca       528 PET     -0.078542
  11600 CA5        45.3900   17.1500   60.7900 ca       528 PET     -0.108363
  11601 CA6        45.9500   16.1300   61.5400 ca       528 PET     -0.163574
  11602 C2         47.3900   16.1000   61.7900 c        528 PET      0.825469
  11603 C3         49.2500   15.9900   63.4700 c3       528 PET      0.058627
  11604 C4         50.3300   16.9100   62.9000 c3       528 PET      0.058627
  11605 O1         40.9000   15.2200   61.5800 os       528 PET     -0.411922
  11606 O2         41.1100   16.6400   59.8300 o        528 PET     -0.591068
  11607 O3         48.2100   15.7200   60.9700 o        528 PET     -0.591068
  11608 O4         47.8400   16.3200   63.1300 os       528 PET     -0.411922
  11609 HA2        43.0800   14.4100   62.2400 ha       528 PET      0.129090
  11610 HA3        45.4100   14.2800   62.6400 ha       528 PET      0.145907
  11611 HA4        43.4400   17.8600   59.8700 ha       528 PET      0.145907
  11612 HA5        46.1500   17.8300   60.4000 ha       528 PET      0.129090
  11613 H31        49.2900   16.0600   64.5700 h1       528 PET      0.097188
  11614 H32        49.3900   14.9200   63.2600 h1       528 PET      0.097188
  11615 H41        50.3800   17.8500   63.4700 h1       528 PET      0.097188
  11616 H42        50.1800   17.1100   61.8300 h1       528 PET      0.097188
  11617 C1         52.2300   16.1100   64.2000 c        529 PET      0.825469
  11618 CA1        53.7300   15.8000   64.1900 ca       529 PET     -0.163574
  11619 CA2        54.4500   15.5300   65.3600 ca       529 PET     -0.108363
  11620 CA3        55.7700   15.1300   65.2500 ca       529 PET     -0.078542
  11621 CA4        54.3900   15.9700   62.9300 ca       529 PET     -0.078542
  11622 CA5        55.7700   15.7200   62.8900 ca       529 PET     -0.108363
  11623 CA6        56.4700   15.2600   64.0200 ca       529 PET     -0.163574
  11624 C2         57.9400   15.0300   64.0500 c        529 PET      0.825469
  11625 C3         60.0000   16.0300   63.3800 c3       529 PET      0.058627
  11626 C4         60.5100   17.1800   62.4000 c3       529 PET      0.058627
  11627 O1         51.6000   16.2100   63.0100 os       529 PET     -0.411922
  11628 O2         51.6700   16.4300   65.2600 o        529 PET     -0.591068
  11629 O3         58.5000   14.4800   64.9400 o        529 PET     -0.591068
  11630 O4         58.6000   15.8400   63.1700 os       529 PET     -0.411922
  11631 HA2        53.8900   15.5400   66.2900 ha       529 PET      0.129090
  11632 HA3        56.3100   14.8400   66.1500 ha       529 PET      0.145907
  11633 HA4        53.9700   16.0600   61.9300 ha       529 PET      0.145907
  11634 HA5        56.3200   15.7300   61.9500 ha       529 PET      0.129090
  11635 H31        60.1800   16.3300   64.4200 h1       529 PET      0.097188
  11636 H32        60.6600   15.1700   63.2400 h1       529 PET      0.097188
  11637 H41        59.8200   18.0200   62.2600 h1       529 PET      0.097188
  11638 H42        60.5800   16.6700   61.4300 h1       529 PET      0.097188
  11639 C1         62.7500   18.1900   62.2100 c        530 PET      0.825469
  11640 CA1        63.9000   18.5800   63.0800 ca       530 PET     -0.163574
  11641 CA2        65.0800   18.9900   62.3900 ca       530 PET     -0.108363
  11642 CA3        66.3100   19.2300   63.1500 ca       530 PET     -0.078542
  11643 CA4        63.9400   18.3800   64.4500 ca       530 PET     -0.078542
  11644 CA5        65.0400   18.7300   65.2200 ca       530 PET     -0.108363
  11645 CA6        66.2400   19.0900   64.6200 ca       530 PET     -0.163574
  11646 C2         67.5700   19.0600   65.3400 c        530 PET      0.825469
  11647 C3         68.6300   18.5900   67.4500 c3       530 PET      0.058627
  11648 C4         69.2700   17.2400   66.9300 c3       530 PET      0.058627
  11649 O1         61.7600   17.6800   62.9300 os       530 PET     -0.411922
  11650 O2         62.7100   18.4500   61.0000 o        530 PET     -0.591068
  11651 O3         68.6500   19.3300   64.8100 o        530 PET     -0.591068
  11652 O4         67.4100   18.7900   66.7100 os       530 PET     -0.411922
  11653 HA2        65.0900   19.1700   61.3200 ha       530 PET      0.129090
  11654 HA3        67.2300   19.5100   62.6500 ha       530 PET      0.145907
  11655 HA4        63.0600   17.9300   64.9100 ha       530 PET      0.145907
  11656 HA5        64.9500   18.5400   66.2800 ha       530 PET      0.129090
  11657 H31        69.4000   19.3600   67.3100 h1       530 PET      0.097188
  11658 H32        68.3900   18.6600   68.5200 h1       530 PET      0.097188
  11659 H41        68.9700   17.0500   65.8900 h1       530 PET      0.097188
  11660 H42        69.0400   16.4000   67.6000 h1       530 PET      0.097188
  11661 C1         71.3700   17.6000   68.0900 c        531 PET      0.825469
  11662 CA1        72.5700   18.4400   68.0400 ca       531 PET     -0.163574
  11663 CA2        72.5500   19.6400   67.2700 ca       531 PET     -0.108363
  11664 CA3        73.6800   20.4900   67.1900 ca       531 PET     -0.078542
  11665 CA4        73.6800   18.1400   68.8500 ca       531 PET     -0.078542
  11666 CA5        74.7000   19.0900   69.0000 ca       531 PET     -0.108363
  11667 CA6        74.7100   20.2100   68.1700 ca       531 PET     -0.163574
  11668 C2         75.8700   21.2400   68.2600 c        531 PET      0.825469
  11669 C3         78.1400   21.5400   68.9900 c3       531 PET      0.058627
  11670 C4         78.7400   21.4000   67.5200 c3       531 PET      0.058627
  11671 O1         70.7000   17.5100   66.9100 os       531 PET     -0.411922
  11672 O2         70.9900   17.1000   69.1300 o        531 PET     -0.591068
  11673 O3         75.8300   22.2900   67.6500 o        531 PET     -0.591068
  11674 O4         76.8900   20.8600   69.0000 os       531 PET     -0.411922
  11675 HA2        71.7100   19.9200   66.6400 ha       531 PET      0.129090
  11676 HA3        73.6500   21.4200   66.6200 ha       531 PET      0.145907
  11677 HA4        73.7400   17.2100   69.4200 ha       531 PET      0.145907
  11678 HA5        75.5400   18.7600   69.6100 ha       531 PET      0.129090
  11679 H31        78.0200   22.5600   69.3800 h1       531 PET      0.097188
  11680 H32        78.8200   21.0100   69.6700 h1       531 PET      0.097188
  11681 H41        78.5300   22.3400   66.9900 h1       531 PET      0.097188
  11682 H42        78.3000   20.5500   66.9900 h1       531 PET      0.097188
  11683 C1          1.0100   22.0500   68.2400 c        532 PET      0.825469
  11684 CA1         2.4600   21.6600   68.1000 ca       532 PET     -0.163574
  11685 CA2         3.4800   22.4000   68.7400 ca       532 PET     -0.108363
  11686 CA3         4.7500   21.8900   68.6300 ca       532 PET     -0.078542
  11687 CA4         2.7700   20.6700   67.0800 ca       532 PET     -0.078542
  11688 CA5         4.1600   20.2700   66.9100 ca       532 PET     -0.108363
  11689 CA6         5.1400   20.8300   67.7800 ca       532 PET     -0.163574
  11690 C2          6.5300   20.2400   67.8400 c        532 PET      0.825469
  11691 C3          8.7300   20.4300   68.9600 c3       532 PET      0.058627
  11692 C4          9.6100   20.5700   67.7200 c3       532 PET      0.058627
  11693 O1          0.1600   21.1100   67.6800 os       532 PET     -0.411922
  11694 O2          0.5700   23.0600   68.7100 o        532 PET     -0.591068
  11695 O3          6.8200   19.2000   67.3000 o        532 PET     -0.591068
  11696 O4          7.4000   20.9300   68.6900 os       532 PET     -0.411922
  11697 HA2         3.2400   23.2400   69.3900 ha       532 PET      0.129090
  11698 HA3         5.5300   22.3100   69.2500 ha       532 PET      0.145907
  11699 HA4         1.9700   20.2600   66.4700 ha       532 PET      0.145907
  11700 HA5         4.4500   19.5400   66.1600 ha       532 PET      0.129090
  11701 H31         9.1300   21.1200   69.7200 h1       532 PET      0.097188
  11702 H32         8.7100   19.4100   69.3600 h1       532 PET      0.097188
  11703 H41         9.5100   21.6000   67.3500 h1       532 PET      0.097188
  11704 H42         9.4600   19.9500   66.8300 h1       532 PET      0.097188
  11705 C1         11.9300   20.8300   67.2100 c        533 PET      0.825469
  11706 CA1        13.3600   20.4800   67.6100 ca       533 PET     -0.163574
  11707 CA2        13.6300   19.4500   68.5500 ca       533 PET     -0.108363
  11708 CA3        15.0000   19.2000   68.8700 ca       533 PET     -0.078542
  11709 CA4        14.4000   20.9900   66.8200 ca       533 PET     -0.078542
  11710 CA5        15.7100   20.6000   67.0600 ca       533 PET     -0.108363
  11711 CA6        16.0400   19.7200   68.1100 ca       533 PET     -0.163574
  11712 C2         17.4700   19.2400   68.3500 c        533 PET      0.825469
  11713 C3         19.7300   19.2200   67.4300 c3       533 PET      0.058627
  11714 C4         20.5500   19.6500   66.2100 c3       533 PET      0.058627
  11715 O1         10.9700   20.3800   68.0300 os       533 PET     -0.411922
  11716 O2         11.7200   21.4600   66.1200 o        533 PET     -0.591068
  11717 O3         17.8100   18.6400   69.3500 o        533 PET     -0.591068
  11718 O4         18.3400   19.5900   67.2800 os       533 PET     -0.411922
  11719 HA2        12.7600   18.9000   68.8800 ha       533 PET      0.129090
  11720 HA3        15.2800   18.3900   69.5400 ha       533 PET      0.145907
  11721 HA4        14.1600   21.7200   66.0500 ha       533 PET      0.145907
  11722 HA5        16.5800   21.0100   66.5500 ha       533 PET      0.129090
  11723 H31        20.2200   19.7700   68.2400 h1       533 PET      0.097188
  11724 H32        19.8700   18.1600   67.6600 h1       533 PET      0.097188
  11725 H41        20.1100   19.1700   65.3200 h1       533 PET      0.097188
  11726 H42        21.6300   19.4500   66.2800 h1       533 PET      0.097188
  11727 C1         21.1900   21.7500   65.3100 c        534 PET      0.825469
  11728 CA1        20.8500   23.2300   65.2000 ca       534 PET     -0.163574
  11729 CA2        19.4800   23.7200   65.2700 ca       534 PET     -0.108363
  11730 CA3        19.2200   25.1800   65.1800 ca       534 PET     -0.078542
  11731 CA4        21.9000   24.1900   65.0200 ca       534 PET     -0.078542
  11732 CA5        21.6100   25.5500   65.0900 ca       534 PET     -0.108363
  11733 CA6        20.2700   26.0900   65.0700 ca       534 PET     -0.163574
  11734 C2         20.0600   27.6300   65.1300 c        534 PET      0.825469
  11735 C3         20.9700   29.7700   64.3300 c3       534 PET      0.058627
  11736 C4         21.2400   30.4700   65.6400 c3       534 PET      0.058627
  11737 O1         20.3400   21.0600   66.0700 os       534 PET     -0.411922
  11738 O2         22.2800   21.2500   64.8800 o        534 PET     -0.591068
  11739 O3         19.1500   28.2200   65.6900 o        534 PET     -0.591068
  11740 O4         21.1400   28.3400   64.5800 os       534 PET     -0.411922
  11741 HA2        18.7200   22.9900   65.5300 ha       534 PET      0.129090
  11742 HA3        18.2000   25.5500   65.1800 ha       534 PET      0.145907
  11743 HA4        22.9400   23.9300   65.1500 ha       534 PET      0.145907
  11744 HA5        22.4400   26.2400   65.1000 ha       534 PET      0.129090
  11745 H31        21.8100   30.0600   63.6800 h1       534 PET      0.097188
  11746 H32        19.9800   29.9800   63.9100 h1       534 PET      0.097188
  11747 H41        21.4700   29.6900   66.3800 h1       534 PET      0.097188
  11748 H42        20.3900   30.9700   66.1200 h1       534 PET      0.097188
  11749 C1         23.5700   30.8800   65.4400 c        535 PET      0.825469
  11750 CA1        24.5800   31.8700   65.1600 ca       535 PET     -0.163574
  11751 CA2        24.1800   33.1800   64.8700 ca       535 PET     -0.108363
  11752 CA3        25.1300   34.1300   64.5300 ca       535 PET     -0.078542
  11753 CA4        25.9800   31.6200   65.3700 ca       535 PET     -0.078542
  11754 CA5        26.8900   32.6000   65.2000 ca       535 PET     -0.108363
  11755 CA6        26.4800   33.8800   64.7400 ca       535 PET     -0.163574
  11756 C2         27.4000   35.0800   64.4600 c        535 PET      0.825469
  11757 C3         29.7100   35.9000   64.4600 c3       535 PET      0.058627
  11758 C4         31.0000   35.6200   65.1000 c3       535 PET      0.058627
  11759 O1         22.3200   31.3500   65.6000 os       535 PET     -0.411922
  11760 O2         23.8400   29.7100   65.5400 o        535 PET     -0.591068
  11761 O3         26.9300   36.1600   64.1500 o        535 PET     -0.591068
  11762 O4         28.7500   34.8100   64.7300 os       535 PET     -0.411922
  11763 HA2        23.1500   33.5200   64.8200 ha       535 PET      0.129090
  11764 HA3        24.7500   35.0600   64.1000 ha       535 PET      0.145907
  11765 HA4        26.3000   30.7000   65.8400 ha       535 PET      0.145907
  11766 HA5        27.9300   32.4500   65.4800 ha       535 PET      0.129090
  11767 H31        29.8700   36.0100   63.3800 h1       535 PET      0.097188
  11768 H32        29.3400   36.8400   64.8700 h1       535 PET      0.097188
  11769 H41        31.4600   34.7400   64.6200 h1       535 PET      0.097188
  11770 H42        30.7700   35.5200   66.1600 h1       535 PET      0.097188
  11771 C1         33.1300   36.8400   65.1700 c        536 PET      0.825469
  11772 CA1        33.8600   38.0600   64.7000 ca       536 PET     -0.163574
  11773 CA2        35.1800   38.2900   65.0600 ca       536 PET     -0.108363
  11774 CA3        35.9200   39.3800   64.5600 ca       536 PET     -0.078542
  11775 CA4        33.2300   39.0300   63.8700 ca       536 PET     -0.078542
  11776 CA5        34.0700   40.0200   63.3000 ca       536 PET     -0.108363
  11777 CA6        35.4000   40.2000   63.6000 ca       536 PET     -0.163574
  11778 C2         36.2500   41.2200   62.8300 c        536 PET      0.825469
  11779 C3         38.2900   42.4800   62.6300 c3       536 PET      0.058627
  11780 C4         39.3700   42.9700   63.6000 c3       536 PET      0.058627
  11781 O1         31.8400   36.8300   64.8700 os       536 PET     -0.411922
  11782 O2         33.6900   35.8900   65.6800 o        536 PET     -0.591068
  11783 O3         35.8600   41.6800   61.7600 o        536 PET     -0.591068
  11784 O4         37.5200   41.4700   63.3500 os       536 PET     -0.411922
  11785 HA2        35.7300   37.6400   65.7400 ha       536 PET      0.129090
  11786 HA3        36.9300   39.4900   64.9500 ha       536 PET      0.145907
  11787 HA4        32.2100   38.8600   63.5500 ha       536 PET      0.145907
  11788 HA5        33.6400   40.6300   62.5100 ha       536 PET      0.129090
  11789 H31        38.6700   42.2400   61.6300 h1       536 PET      0.097188
  11790 H32        37.5800   43.2900   62.4200 h1       536 PET      0.097188
  11791 H41        38.8400   43.4400   64.4400 h1       536 PET      0.097188
  11792 H42        40.0900   43.6600   63.1600 h1       536 PET      0.097188
  11793 C1         41.2900   42.1300   64.8200 c        537 PET      0.825469
  11794 CA1        42.1500   40.9000   64.9500 ca       537 PET     -0.163574
  11795 CA2        43.5200   41.0300   64.9300 ca       537 PET     -0.108363
  11796 CA3        44.3500   39.9100   65.1300 ca       537 PET     -0.078542
  11797 CA4        41.6600   39.6000   64.9100 ca       537 PET     -0.078542
  11798 CA5        42.4400   38.4500   65.0400 ca       537 PET     -0.108363
  11799 CA6        43.8300   38.5500   65.1100 ca       537 PET     -0.163574
  11800 C2         44.7100   37.3600   65.3000 c        537 PET      0.825469
  11801 C3         47.0800   36.7700   65.2200 c3       537 PET      0.058627
  11802 C4         48.3500   37.6500   65.3600 c3       537 PET      0.058627
  11803 O1         40.1400   41.8600   64.1200 os       537 PET     -0.411922
  11804 O2         41.6700   43.2900   65.1400 o        537 PET     -0.591068
  11805 O3         44.4000   36.2700   64.9700 o        537 PET     -0.591068
  11806 O4         46.0400   37.6900   65.4200 os       537 PET     -0.411922
  11807 HA2        44.0000   42.0000   64.9200 ha       537 PET      0.129090
  11808 HA3        45.4200   40.0800   65.1700 ha       537 PET      0.145907
  11809 HA4        40.5900   39.4300   64.8800 ha       537 PET      0.145907
  11810 HA5        42.0100   37.4500   65.0500 ha       537 PET      0.129090
  11811 H31        47.0100   36.1600   66.1300 h1       537 PET      0.097188
  11812 H32        46.9300   36.2300   64.2800 h1       537 PET      0.097188
  11813 H41        48.2900   38.1500   66.3400 h1       537 PET      0.097188
  11814 H42        48.2800   38.4200   64.5800 h1       537 PET      0.097188
  11815 C1         50.0800   36.5700   64.0300 c        538 PET      0.825469
  11816 CA1        51.3400   35.8000   64.2200 ca       538 PET     -0.163574
  11817 CA2        51.6700   34.6200   63.5100 ca       538 PET     -0.108363
  11818 CA3        52.8400   33.8900   63.7800 ca       538 PET     -0.078542
  11819 CA4        52.3200   36.1200   65.2700 ca       538 PET     -0.078542
  11820 CA5        53.4900   35.3800   65.5900 ca       538 PET     -0.108363
  11821 CA6        53.7200   34.2200   64.8000 ca       538 PET     -0.163574
  11822 C2         54.9300   33.4700   65.0200 c        538 PET      0.825469
  11823 C3         57.3200   33.6800   65.2900 c3       538 PET      0.058627
  11824 C4         58.2200   34.8200   65.6000 c3       538 PET      0.058627
  11825 O1         49.5900   36.9400   65.2300 os       538 PET     -0.411922
  11826 O2         49.5400   36.7300   62.9700 o        538 PET     -0.591068
  11827 O3         54.9800   32.2800   64.8800 o        538 PET     -0.591068
  11828 O4         56.0300   34.2400   65.3900 os       538 PET     -0.411922
  11829 HA2        50.9600   34.2700   62.7500 ha       538 PET      0.129090
  11830 HA3        53.0900   33.0100   63.2100 ha       538 PET      0.145907
  11831 HA4        52.1300   37.0100   65.8600 ha       538 PET      0.145907
  11832 HA5        54.1000   35.7100   66.4300 ha       538 PET      0.129090
  11833 H31        57.4700   32.8300   65.9700 h1       538 PET      0.097188
  11834 H32        57.5800   33.2800   64.3000 h1       538 PET      0.097188
  11835 H41        58.1400   35.0000   66.6800 h1       538 PET      0.097188
  11836 H42        57.9200   35.6900   64.9900 h1       538 PET      0.097188
  11837 C1         60.5800   35.3400   65.6300 c        539 PET      0.825469
  11838 CA1        61.9100   35.1000   65.0000 ca       539 PET     -0.163574
  11839 CA2        63.0600   35.7400   65.4900 ca       539 PET     -0.108363
  11840 CA3        64.3500   35.4600   65.0000 ca       539 PET     -0.078542
  11841 CA4        62.1400   34.0700   64.0500 ca       539 PET     -0.078542
  11842 CA5        63.3500   33.8000   63.4900 ca       539 PET     -0.108363
  11843 CA6        64.5000   34.5400   63.9300 ca       539 PET     -0.163574
  11844 C2         65.8300   34.3100   63.3200 c        539 PET      0.825469
  11845 C3         68.2300   34.9000   63.7300 c3       539 PET      0.058627
  11846 C4         68.8800   35.2000   65.0800 c3       539 PET      0.058627
  11847 O1         59.5700   34.4800   65.2700 os       539 PET     -0.411922
  11848 O2         60.4100   36.0700   66.5800 o        539 PET     -0.591068
  11849 O3         66.0100   33.8700   62.2000 o        539 PET     -0.591068
  11850 O4         66.8400   34.7000   64.1300 os       539 PET     -0.411922
  11851 HA2        63.0100   36.4300   66.3300 ha       539 PET      0.129090
  11852 HA3        65.1400   36.1100   65.3700 ha       539 PET      0.145907
  11853 HA4        61.2100   33.5800   63.7800 ha       539 PET      0.145907
  11854 HA5        63.4800   33.1500   62.6300 ha       539 PET      0.129090
  11855 H31        68.6400   33.9500   63.3500 h1       539 PET      0.097188
  11856 H32        68.3400   35.6100   62.9000 h1       539 PET      0.097188
  11857 H41        68.5300   34.4000   65.7300 h1       539 PET      0.097188
  11858 H42        68.6000   36.2000   65.4300 h1       539 PET      0.097188
  11859 C1         71.0100   36.0200   64.2400 c        540 PET      0.825469
  11860 CA1        72.4600   35.9900   64.3500 ca       540 PET     -0.163574
  11861 CA2        73.3600   36.8400   63.6100 ca       540 PET     -0.108363
  11862 CA3        74.7500   36.8100   63.8300 ca       540 PET     -0.078542
  11863 CA4        73.1100   35.2700   65.3500 ca       540 PET     -0.078542
  11864 CA5        74.4600   35.0900   65.5100 ca       540 PET     -0.108363
  11865 CA6        75.3400   35.9800   64.8100 ca       540 PET     -0.163574
  11866 C2         76.8300   35.9600   65.1200 c        540 PET      0.825469
  11867 C3         78.9600   35.9500   64.1100 c3       540 PET      0.058627
  11868 C4         79.4500   35.9600   62.6500 c3       540 PET      0.058627
  11869 O1         70.2900   35.1000   64.8900 os       540 PET     -0.411922
  11870 O2         70.5400   36.9000   63.5000 o        540 PET     -0.591068
  11871 O3         77.3700   35.7200   66.1800 o        540 PET     -0.591068
  11872 O4         77.5900   36.2100   64.0600 os       540 PET     -0.411922
  11873 HA2        73.0200   37.5400   62.8500 ha       540 PET      0.129090
  11874 HA3        75.4200   37.4600   63.2800 ha       540 PET      0.145907
  11875 HA4        72.4800   34.8000   66.1000 ha       540 PET      0.145907
  11876 HA5        74.8000   34.5100   66.3600 ha       540 PET      0.129090
  11877 H31        79.4600   36.6500   64.7900 h1       540 PET      0.097188
  11878 H32        79.1400   34.9400   64.5100 h1       540 PET      0.097188
  11879 H41        80.5400   35.8400   62.6900 h1       540 PET      0.097188
  11880 H42        79.2300   36.8900   62.1200 h1       540 PET      0.097188
@<TRIPOS>BOND
    1     2     1 1
    2     3     2 1
    3     4     3 1
    4     5     2 1
    5     6     5 1
    6     7     4 1
    7     7     6 1
    8     8     7 1
    9    10     9 1
   10    10    33 1
   11    11     1 1
   12    12     1 1
   13    13     8 1
   14    14     8 1
   15    14     9 1
   16    24    23 1
   17    25    24 1
   18    26    25 1
   19    27    24 1
   20    28    27 1
   21    29    26 1
   22    29    28 1
   23    30    29 1
   24    32    31 1
   25    32    55 1
   26    33    23 1
   27    34    23 1
   28    35    30 1
   29    36    30 1
   30    36    31 1
   31    46    45 1
   32    47    46 1
   33    48    47 1
   34    49    46 1
   35    50    49 1
   36    51    48 1
   37    51    50 1
   38    52    51 1
   39    54    53 1
   40    54    77 1
   41    55    45 1
   42    56    45 1
   43    57    52 1
   44    58    52 1
   45    58    53 1
   46    68    67 1
   47    69    68 1
   48    70    69 1
   49    71    68 1
   50    72    71 1
   51    73    70 1
   52    73    72 1
   53    74    73 1
   54    76    75 1
   55    76    99 1
   56    77    67 1
   57    78    67 1
   58    79    74 1
   59    80    74 1
   60    80    75 1
   61    90    89 1
   62    91    90 1
   63    92    91 1
   64    93    90 1
   65    94    93 1
   66    95    92 1
   67    95    94 1
   68    96    95 1
   69    98    97 1
   70    98   121 1
   71    99    89 1
   72   100    89 1
   73   101    96 1
   74   102    96 1
   75   102    97 1
   76   112   111 1
   77   113   112 1
   78   114   113 1
   79   115   112 1
   80   116   115 1
   81   117   114 1
   82   117   116 1
   83   118   117 1
   84   120   119 1
   85   120   143 1
   86   121   111 1
   87   122   111 1
   88   123   118 1
   89   124   118 1
   90   124   119 1
   91   134   133 1
   92   135   134 1
   93   136   135 1
   94   137   134 1
   95   138   137 1
   96   139   136 1
   97   139   138 1
   98   140   139 1
   99   142   141 1
  100   142   165 1
  101   143   133 1
  102   144   133 1
  103   145   140 1
  104   146   140 1
  105   146   141 1
  106   156   155 1
  107   157   156 1
  108   158   157 1
  109   159   156 1
  110   160   159 1
  111   161   158 1
  112   161   160 1
  113   162   161 1
  114   164   163 1
  115   164   187 1
  116   165   155 1
  117   166   155 1
  118   167   162 1
  119   168   162 1
  120   168   163 1
  121   178   177 1
  122   179   178 1
  123   180   179 1
  124   181   178 1
  125   182   181 1
  126   183   180 1
  127   183   182 1
  128   184   183 1
  129   186   185 1
  130   186   209 1
  131   187   177 1
  132   188   177 1
  133   189   184 1
  134   190   184 1
  135   190   185 1
  136   200   199 1
  137   201   200 1
  138   202   201 1
  139   203   200 1
  140   204   203 1
  141   205   202 1
  142   205   204 1
  143   206   205 1
  144   208   207 1
  145   208   231 1
  146   209   199 1
  147   210   199 1
  148   211   206 1
  149   212   206 1
  150   212   207 1
  151   222   221 1
  152   223   222 1
  153   224   223 1
  154   225   222 1
  155   226   225 1
  156   227   224 1
  157   227   226 1
  158   228   227 1
  159   230   229 1
  160   230   253 1
  161   231   221 1
  162   232   221 1
  163   233   228 1
  164   234   228 1
  165   234   229 1
  166   244   243 1
  167   245   244 1
  168   246   245 1
  169   247   244 1
  170   248   247 1
  171   249   246 1
  172   249   248 1
  173   250   249 1
  174   252   251 1
  175   252   275 1
  176   253   243 1
  177   254   243 1
  178   255   250 1
  179   256   250 1
  180   256   251 1
  181   266   265 1
  182   267   266 1
  183   268   267 1
  184   269   266 1
  185   270   269 1
  186   271   268 1
  187   271   270 1
  188   272   271 1
  189   274   273 1
  190   274   297 1
  191   275   265 1
  192   276   265 1
  193   277   272 1
  194   278   272 1
  195   278   273 1
  196   288   287 1
  197   289   288 1
  198   290   289 1
  199   291   288 1
  200   292   291 1
  201   293   290 1
  202   293   292 1
  203   294   293 1
  204   296   295 1
  205   296   319 1
  206   297   287 1
  207   298   287 1
  208   299   294 1
  209   300   294 1
  210   300   295 1
  211   310   309 1
  212   311   310 1
  213   312   311 1
  214   313   310 1
  215   314   313 1
  216   315   312 1
  217   315   314 1
  218   316   315 1
  219   318   317 1
  220   318   341 1
  221   319   309 1
  222   320   309 1
  223   321   316 1
  224   322   316 1
  225   322   317 1
  226   332   331 1
  227   333   332 1
  228   334   333 1
  229   335   332 1
  230   336   335 1
  231   337   334 1
  232   337   336 1
  233   338   337 1
  234   340   339 1
  235   340   363 1
  236   341   331 1
  237   342   331 1
  238   343   338 1
  239   344   338 1
  240   344   339 1
  241   354   353 1
  242   355   354 1
  243   356   355 1
  244   357   354 1
  245   358   357 1
  246   359   356 1
  247   359   358 1
  248   360   359 1
  249   362   361 1
  250   362   385 1
  251   363   353 1
  252   364   353 1
  253   365   360 1
  254   366   360 1
  255   366   361 1
  256   376   375 1
  257   377   376 1
  258   378   377 1
  259   379   376 1
  260   380   379 1
  261   381   378 1
  262   381   380 1
  263   382   381 1
  264   384   383 1
  265   384   407 1
  266   385   375 1
  267   386   375 1
  268   387   382 1
  269   388   382 1
  270   388   383 1
  271   398   397 1
  272   399   398 1
  273   400   399 1
  274   401   398 1
  275   402   401 1
  276   403   400 1
  277   403   402 1
  278   404   403 1
  279   406   405 1
  280   406   429 1
  281   407   397 1
  282   408   397 1
  283   409   404 1
  284   410   404 1
  285   410   405 1
  286   420   419 1
  287   421   420 1
  288   422   421 1
  289   423   420 1
  290   424   423 1
  291   425   422 1
  292   425   424 1
  293   426   425 1
  294   428   427 1
  295   428   451 1
  296   429   419 1
  297   430   419 1
  298   431   426 1
  299   432   426 1
  300   432   427 1
  301   442   441 1
  302   443   442 1
  303   444   443 1
  304   445   442 1
  305   446   445 1
  306   447   444 1
  307   447   446 1
  308   448   447 1
  309   450   449 1
  310   450   473 1
  311   451   441 1
  312   452   441 1
  313   453   448 1
  314   454   448 1
  315   454   449 1
  316   464   463 1
  317   465   464 1
  318   466   465 1
  319   467   464 1
  320   468   467 1
  321   469   466 1
  322   469   468 1
  323   470   469 1
  324   472   471 1
  325   472   495 1
  326   473   463 1
  327   474   463 1
  328   475   470 1
  329   476   470 1
  330   476   471 1
  331   486   485 1
  332   487   486 1
  333   488   487 1
  334   489   486 1
  335   490   489 1
  336   491   488 1
  337   491   490 1
  338   492   491 1
  339   494   493 1
  340   494   517 1
  341   495   485 1
  342   496   485 1
  343   497   492 1
  344   498   492 1
  345   498   493 1
  346   508   507 1
  347   509   508 1
  348   510   509 1
  349   511   508 1
  350   512   511 1
  351   513   510 1
  352   513   512 1
  353   514   513 1
  354   516   515 1
  355   516   539 1
  356   517   507 1
  357   518   507 1
  358   519   514 1
  359   520   514 1
  360   520   515 1
  361   530   529 1
  362   531   530 1
  363   532   531 1
  364   533   530 1
  365   534   533 1
  366   535   532 1
  367   535   534 1
  368   536   535 1
  369   538   537 1
  370   538   561 1
  371   539   529 1
  372   540   529 1
  373   541   536 1
  374   542   536 1
  375   542   537 1
  376   552   551 1
  377   553   552 1
  378   554   553 1
  379   555   552 1
  380   556   555 1
  381   557   554 1
  382   557   556 1
  383   558   557 1
  384   560   559 1
  385   560   583 1
  386   561   551 1
  387   562   551 1
  388   563   558 1
  389   564   558 1
  390   564   559 1
  391   574   573 1
  392   575   574 1
  393   576   575 1
  394   577   574 1
  395   578   577 1
  396   579   576 1
  397   579   578 1
  398   580   579 1
  399   582   581 1
  400   582   605 1
  401   583   573 1
  402   584   573 1
  403   585   580 1
  404   586   580 1
  405   586   581 1
  406   596   595 1
  407   597   596 1
  408   598   597 1
  409   599   596 1
  410   600   599 1
  411   601   598 1
  412   601   600 1
  413   602   601 1
  414   604   603 1
  415   604   627 1
  416   605   595 1
  417   606   595 1
  418   607   602 1
  419   608   602 1
  420   608   603 1
  421   618   617 1
  422   619   618 1
  423   620   619 1
  424   621   618 1
  425   622   621 1
  426   623   620 1
  427   623   622 1
  428   624   623 1
  429   626   625 1
  430   626   649 1
  431   627   617 1
  432   628   617 1
  433   629   624 1
  434   630   624 1
  435   630   625 1
  436   640   639 1
  437   641   640 1
  438   642   641 1
  439   643   640 1
  440   644   643 1
  441   645   642 1
  442   645   644 1
  443   646   645 1
  444   648   647 1
  445   649   639 1
  446   650   639 1
  447   651   646 1
  448   652   646 1
  449   652   647 1
  450   662   661 1
  451   663   662 1
  452   664   663 1
  453   665   662 1
  454   666   665 1
  455   667   664 1
  456   667   666 1
  457   668   667 1
  458   670   669 1
  459   670   693 1
  460   671   661 1
  461   672   661 1
  462   673   668 1
  463   674   668 1
  464   674   669 1
  465   684   683 1
  466   685   684 1
  467   686   685 1
  468   687   684 1
  469   688   687 1
  470   689   686 1
  471   689   688 1
  472   690   689 1
  473   692   691 1
  474   692   715 1
  475   693   683 1
  476   694   683 1
  477   695   690 1
  478   696   690 1
  479   696   691 1
  480   706   705 1
  481   707   706 1
  482   708   707 1
  483   709   706 1
  484   710   709 1
  485   711   708 1
  486   711   710 1
  487   712   711 1
  488   714   713 1
  489   714   737 1
  490   715   705 1
  491   716   705 1
  492   717   712 1
  493   718   712 1
  494   718   713 1
  495   728   727 1
  496   729   728 1
  497   730   729 1
  498   731   728 1
  499   732   731 1
  500   733   730 1
  501   733   732 1
  502   734   733 1
  503   736   735 1
  504   736   759 1
  505   737   727 1
  506   738   727 1
  507   739   734 1
  508   740   734 1
  509   740   735 1
  510   750   749 1
  511   751   750 1
  512   752   751 1
  513   753   750 1
  514   754   753 1
  515   755   752 1
  516   755   754 1
  517   756   755 1
  518   758   757 1
  519   758   781 1
  520   759   749 1
  521   760   749 1
  522   761   756 1
  523   762   756 1
  524   762   757 1
  525   772   771 1
  526   773   772 1
  527   774   773 1
  528   775   772 1
  529   776   775 1
  530   777   774 1
  531   777   776 1
  532   778   777 1
  533   780   779 1
  534   780   803 1
  535   781   771 1
  536   782   771 1
  537   783   778 1
  538   784   778 1
  539   784   779 1
  540   794   793 1
  541   795   794 1
  542   796   795 1
  543   797   794 1
  544   798   797 1
  545   799   796 1
  546   799   798 1
  547   800   799 1
  548   802   801 1
  549   802   825 1
  550   803   793 1
  551   804   793 1
  552   805   800 1
  553   806   800 1
  554   806   801 1
  555   816   815 1
  556   817   816 1
  557   818   817 1
  558   819   816 1
  559   820   819 1
  560   821   818 1
  561   821   820 1
  562   822   821 1
  563   824   823 1
  564   824   847 1
  565   825   815 1
  566   826   815 1
  567   827   822 1
  568   828   822 1
  569   828   823 1
  570   838   837 1
  571   839   838 1
  572   840   839 1
  573   841   838 1
  574   842   841 1
  575   843   840 1
  576   843   842 1
  577   844   843 1
  578   846   845 1
  579   846   869 1
  580   847   837 1
  581   848   837 1
  582   849   844 1
  583   850   844 1
  584   850   845 1
  585   860   859 1
  586   861   860 1
  587   862   861 1
  588   863   860 1
  589   864   863 1
  590   865   862 1
  591   865   864 1
  592   866   865 1
  593   868   867 1
  594   868   891 1
  595   869   859 1
  596   870   859 1
  597   871   866 1
  598   872   866 1
  599   872   867 1
  600   882   881 1
  601   883   882 1
  602   884   883 1
  603   885   882 1
  604   886   885 1
  605   887   884 1
  606   887   886 1
  607   888   887 1
  608   890   889 1
  609   890   913 1
  610   891   881 1
  611   892   881 1
  612   893   888 1
  613   894   888 1
  614   894   889 1
  615   904   903 1
  616   905   904 1
  617   906   905 1
  618   907   904 1
  619   908   907 1
  620   909   906 1
  621   909   908 1
  622   910   909 1
  623   912   911 1
  624   912   935 1
  625   913   903 1
  626   914   903 1
  627   915   910 1
  628   916   910 1
  629   916   911 1
  630   926   925 1
  631   927   926 1
  632   928   927 1
  633   929   926 1
  634   930   929 1
  635   931   928 1
  636   931   930 1
  637   932   931 1
  638   934   933 1
  639   934   957 1
  640   935   925 1
  641   936   925 1
  642   937   932 1
  643   938   932 1
  644   938   933 1
  645   948   947 1
  646   949   948 1
  647   950   949 1
  648   951   948 1
  649   952   951 1
  650   953   950 1
  651   953   952 1
  652   954   953 1
  653   956   955 1
  654   956   979 1
  655   957   947 1
  656   958   947 1
  657   959   954 1
  658   960   954 1
  659   960   955 1
  660   970   969 1
  661   971   970 1
  662   972   971 1
  663   973   970 1
  664   974   973 1
  665   975   972 1
  666   975   974 1
  667   976   975 1
  668   978   977 1
  669   978  1001 1
  670   979   969 1
  671   980   969 1
  672   981   976 1
  673   982   976 1
  674   982   977 1
  675   992   991 1
  676   993   992 1
  677   994   993 1
  678   995   992 1
  679   996   995 1
  680   997   994 1
  681   997   996 1
  682   998   997 1
  683  1000   999 1
  684  1000  1023 1
  685  1001   991 1
  686  1002   991 1
  687  1003   998 1
  688  1004   998 1
  689  1004   999 1
  690  1014  1013 1
  691  1015  1014 1
  692  1016  1015 1
  693  1017  1014 1
  694  1018  1017 1
  695  1019  1016 1
  696  1019  1018 1
  697  1020  1019 1
  698  1022  1021 1
  699  1022  1045 1
  700  1023  1013 1
  701  1024  1013 1
  702  1025  1020 1
  703  1026  1020 1
  704  1026  1021 1
  705  1036  1035 1
  706  1037  1036 1
  707  1038  1037 1
  708  1039  1036 1
  709  1040  1039 1
  710  1041  1038 1
  711  1041  1040 1
  712  1042  1041 1
  713  1044  1043 1
  714  1044  1067 1
  715  1045  1035 1
  716  1046  1035 1
  717  1047  1042 1
  718  1048  1042 1
  719  1048  1043 1
  720  1058  1057 1
  721  1059  1058 1
  722  1060  1059 1
  723  1061  1058 1
  724  1062  1061 1
  725  1063  1060 1
  726  1063  1062 1
  727  1064  1063 1
  728  1066  1065 1
  729  1066  1089 1
  730  1067  1057 1
  731  1068  1057 1
  732  1069  1064 1
  733  1070  1064 1
  734  1070  1065 1
  735  1080  1079 1
  736  1081  1080 1
  737  1082  1081 1
  738  1083  1080 1
  739  1084  1083 1
  740  1085  1082 1
  741  1085  1084 1
  742  1086  1085 1
  743  1088  1087 1
  744  1088  1111 1
  745  1089  1079 1
  746  1090  1079 1
  747  1091  1086 1
  748  1092  1086 1
  749  1092  1087 1
  750  1102  1101 1
  751  1103  1102 1
  752  1104  1103 1
  753  1105  1102 1
  754  1106  1105 1
  755  1107  1104 1
  756  1107  1106 1
  757  1108  1107 1
  758  1110  1109 1
  759  1110  1133 1
  760  1111  1101 1
  761  1112  1101 1
  762  1113  1108 1
  763  1114  1108 1
  764  1114  1109 1
  765  1124  1123 1
  766  1125  1124 1
  767  1126  1125 1
  768  1127  1124 1
  769  1128  1127 1
  770  1129  1126 1
  771  1129  1128 1
  772  1130  1129 1
  773  1132  1131 1
  774  1132  1155 1
  775  1133  1123 1
  776  1134  1123 1
  777  1135  1130 1
  778  1136  1130 1
  779  1136  1131 1
  780  1146  1145 1
  781  1147  1146 1
  782  1148  1147 1
  783  1149  1146 1
  784  1150  1149 1
  785  1151  1148 1
  786  1151  1150 1
  787  1152  1151 1
  788  1154  1153 1
  789  1154  1177 1
  790  1155  1145 1
  791  1156  1145 1
  792  1157  1152 1
  793  1158  1152 1
  794  1158  1153 1
  795  1168  1167 1
  796  1169  1168 1
  797  1170  1169 1
  798  1171  1168 1
  799  1172  1171 1
  800  1173  1170 1
  801  1173  1172 1
  802  1174  1173 1
  803  1176  1175 1
  804  1176  1199 1
  805  1177  1167 1
  806  1178  1167 1
  807  1179  1174 1
  808  1180  1174 1
  809  1180  1175 1
  810  1190  1189 1
  811  1191  1190 1
  812  1192  1191 1
  813  1193  1190 1
  814  1194  1193 1
  815  1195  1192 1
  816  1195  1194 1
  817  1196  1195 1
  818  1198  1197 1
  819  1198  1221 1
  820  1199  1189 1
  821  1200  1189 1
  822  1201  1196 1
  823  1202  1196 1
  824  1202  1197 1
  825  1212  1211 1
  826  1213  1212 1
  827  1214  1213 1
  828  1215  1212 1
  829  1216  1215 1
  830  1217  1214 1
  831  1217  1216 1
  832  1218  1217 1
  833  1220  1219 1
  834  1220  1243 1
  835  1221  1211 1
  836  1222  1211 1
  837  1223  1218 1
  838  1224  1218 1
  839  1224  1219 1
  840  1234  1233 1
  841  1235  1234 1
  842  1236  1235 1
  843  1237  1234 1
  844  1238  1237 1
  845  1239  1236 1
  846  1239  1238 1
  847  1240  1239 1
  848  1242  1241 1
  849  1242  1265 1
  850  1243  1233 1
  851  1244  1233 1
  852  1245  1240 1
  853  1246  1240 1
  854  1246  1241 1
  855  1256  1255 1
  856  1257  1256 1
  857  1258  1257 1
  858  1259  1256 1
  859  1260  1259 1
  860  1261  1258 1
  861  1261  1260 1
  862  1262  1261 1
  863  1264  1263 1
  864  1264  1287 1
  865  1265  1255 1
  866  1266  1255 1
  867  1267  1262 1
  868  1268  1262 1
  869  1268  1263 1
  870  1278  1277 1
  871  1279  1278 1
  872  1280  1279 1
  873  1281  1278 1
  874  1282  1281 1
  875  1283  1280 1
  876  1283  1282 1
  877  1284  1283 1
  878  1286  1285 1
  879  1286  1309 1
  880  1287  1277 1
  881  1288  1277 1
  882  1289  1284 1
  883  1290  1284 1
  884  1290  1285 1
  885  1300  1299 1
  886  1301  1300 1
  887  1302  1301 1
  888  1303  1300 1
  889  1304  1303 1
  890  1305  1302 1
  891  1305  1304 1
  892  1306  1305 1
  893  1308  1307 1
  894  1309  1299 1
  895  1310  1299 1
  896  1311  1306 1
  897  1312  1306 1
  898  1312  1307 1
  899  1322  1321 1
  900  1323  1322 1
  901  1324  1323 1
  902  1325  1322 1
  903  1326  1325 1
  904  1327  1324 1
  905  1327  1326 1
  906  1328  1327 1
  907  1330  1329 1
  908  1330  1353 1
  909  1331  1321 1
  910  1332  1321 1
  911  1333  1328 1
  912  1334  1328 1
  913  1334  1329 1
  914  1344  1343 1
  915  1345  1344 1
  916  1346  1345 1
  917  1347  1344 1
  918  1348  1347 1
  919  1349  1346 1
  920  1349  1348 1
  921  1350  1349 1
  922  1352  1351 1
  923  1352  1375 1
  924  1353  1343 1
  925  1354  1343 1
  926  1355  1350 1
  927  1356  1350 1
  928  1356  1351 1
  929  1366  1365 1
  930  1367  1366 1
  931  1368  1367 1
  932  1369  1366 1
  933  1370  1369 1
  934  1371  1368 1
  935  1371  1370 1
  936  1372  1371 1
  937  1374  1373 1
  938  1374  1397 1
  939  1375  1365 1
  940  1376  1365 1
  941  1377  1372 1
  942  1378  1372 1
  943  1378  1373 1
  944  1388  1387 1
  945  1389  1388 1
  946  1390  1389 1
  947  1391  1388 1
  948  1392  1391 1
  949  1393  1390 1
  950  1393  1392 1
  951  1394  1393 1
  952  1396  1395 1
  953  1396  1419 1
  954  1397  1387 1
  955  1398  1387 1
  956  1399  1394 1
  957  1400  1394 1
  958  1400  1395 1
  959  1410  1409 1
  960  1411  1410 1
  961  1412  1411 1
  962  1413  1410 1
  963  1414  1413 1
  964  1415  1412 1
  965  1415  1414 1
  966  1416  1415 1
  967  1418  1417 1
  968  1418  1441 1
  969  1419  1409 1
  970  1420  1409 1
  971  1421  1416 1
  972  1422  1416 1
  973  1422  1417 1
  974  1432  1431 1
  975  1433  1432 1
  976  1434  1433 1
  977  1435  1432 1
  978  1436  1435 1
  979  1437  1434 1
  980  1437  1436 1
  981  1438  1437 1
  982  1440  1439 1
  983  1440  1463 1
  984  1441  1431 1
  985  1442  1431 1
  986  1443  1438 1
  987  1444  1438 1
  988  1444  1439 1
  989  1454  1453 1
  990  1455  1454 1
  991  1456  1455 1
  992  1457  1454 1
  993  1458  1457 1
  994  1459  1456 1
  995  1459  1458 1
  996  1460  1459 1
  997  1462  1461 1
  998  1462  1485 1
  999  1463  1453 1
 1000  1464  1453 1
 1001  1465  1460 1
 1002  1466  1460 1
 1003  1466  1461 1
 1004  1476  1475 1
 1005  1477  1476 1
 1006  1478  1477 1
 1007  1479  1476 1
 1008  1480  1479 1
 1009  1481  1478 1
 1010  1481  1480 1
 1011  1482  1481 1
 1012  1484  1483 1
 1013  1484  1507 1
 1014  1485  1475 1
 1015  1486  1475 1
 1016  1487  1482 1
 1017  1488  1482 1
 1018  1488  1483 1
 1019  1498  1497 1
 1020  1499  1498 1
 1021  1500  1499 1
 1022  1501  1498 1
 1023  1502  1501 1
 1024  1503  1500 1
 1025  1503  1502 1
 1026  1504  1503 1
 1027  1506  1505 1
 1028  1506  1529 1
 1029  1507  1497 1
 1030  1508  1497 1
 1031  1509  1504 1
 1032  1510  1504 1
 1033  1510  1505 1
 1034  1520  1519 1
 1035  1521  1520 1
 1036  1522  1521 1
 1037  1523  1520 1
 1038  1524  1523 1
 1039  1525  1522 1
 1040  1525  1524 1
 1041  1526  1525 1
 1042  1528  1527 1
 1043  1528  1551 1
 1044  1529  1519 1
 1045  1530  1519 1
 1046  1531  1526 1
 1047  1532  1526 1
 1048  1532  1527 1
 1049  1542  1541 1
 1050  1543  1542 1
 1051  1544  1543 1
 1052  1545  1542 1
 1053  1546  1545 1
 1054  1547  1544 1
 1055  1547  1546 1
 1056  1548  1547 1
 1057  1550  1549 1
 1058  1550  1573 1
 1059  1551  1541 1
 1060  1552  1541 1
 1061  1553  1548 1
 1062  1554  1548 1
 1063  1554  1549 1
 1064  1564  1563 1
 1065  1565  1564 1
 1066  1566  1565 1
 1067  1567  1564 1
 1068  1568  1567 1
 1069  1569  1566 1
 1070  1569  1568 1
 1071  1570  1569 1
 1072  1572  1571 1
 1073  1572  1595 1
 1074  1573  1563 1
 1075  1574  1563 1
 1076  1575  1570 1
 1077  1576  1570 1
 1078  1576  1571 1
 1079  1586  1585 1
 1080  1587  1586 1
 1081  1588  1587 1
 1082  1589  1586 1
 1083  1590  1589 1
 1084  1591  1588 1
 1085  1591  1590 1
 1086  1592  1591 1
 1087  1594  1593 1
 1088  1594  1617 1
 1089  1595  1585 1
 1090  1596  1585 1
 1091  1597  1592 1
 1092  1598  1592 1
 1093  1598  1593 1
 1094  1608  1607 1
 1095  1609  1608 1
 1096  1610  1609 1
 1097  1611  1608 1
 1098  1612  1611 1
 1099  1613  1610 1
 1100  1613  1612 1
 1101  1614  1613 1
 1102  1616  1615 1
 1103  1616  1639 1
 1104  1617  1607 1
 1105  1618  1607 1
 1106  1619  1614 1
 1107  1620  1614 1
 1108  1620  1615 1
 1109  1630  1629 1
 1110  1631  1630 1
 1111  1632  1631 1
 1112  1633  1630 1
 1113  1634  1633 1
 1114  1635  1632 1
 1115  1635  1634 1
 1116  1636  1635 1
 1117  1638  1637 1
 1118  1638  1661 1
 1119  1639  1629 1
 1120  1640  1629 1
 1121  1641  1636 1
 1122  1642  1636 1
 1123  1642  1637 1
 1124  1652  1651 1
 1125  1653  1652 1
 1126  1654  1653 1
 1127  1655  1652 1
 1128  1656  1655 1
 1129  1657  1654 1
 1130  1657  1656 1
 1131  1658  1657 1
 1132  1660  1659 1
 1133  1660  1683 1
 1134  1661  1651 1
 1135  1662  1651 1
 1136  1663  1658 1
 1137  1664  1658 1
 1138  1664  1659 1
 1139  1674  1673 1
 1140  1675  1674 1
 1141  1676  1675 1
 1142  1677  1674 1
 1143  1678  1677 1
 1144  1679  1676 1
 1145  1679  1678 1
 1146  1680  1679 1
 1147  1682  1681 1
 1148  1682  1705 1
 1149  1683  1673 1
 1150  1684  1673 1
 1151  1685  1680 1
 1152  1686  1680 1
 1153  1686  1681 1
 1154  1696  1695 1
 1155  1697  1696 1
 1156  1698  1697 1
 1157  1699  1696 1
 1158  1700  1699 1
 1159  1701  1698 1
 1160  1701  1700 1
 1161  1702  1701 1
 1162  1704  1703 1
 1163  1704  1727 1
 1164  1705  1695 1
 1165  1706  1695 1
 1166  1707  1702 1
 1167  1708  1702 1
 1168  1708  1703 1
 1169  1718  1717 1
 1170  1719  1718 1
 1171  1720  1719 1
 1172  1721  1718 1
 1173  1722  1721 1
 1174  1723  1720 1
 1175  1723  1722 1
 1176  1724  1723 1
 1177  1726  1725 1
 1178  1726  1749 1
 1179  1727  1717 1
 1180  1728  1717 1
 1181  1729  1724 1
 1182  1730  1724 1
 1183  1730  1725 1
 1184  1740  1739 1
 1185  1741  1740 1
 1186  1742  1741 1
 1187  1743  1740 1
 1188  1744  1743 1
 1189  1745  1742 1
 1190  1745  1744 1
 1191  1746  1745 1
 1192  1748  1747 1
 1193  1748  1771 1
 1194  1749  1739 1
 1195  1750  1739 1
 1196  1751  1746 1
 1197  1752  1746 1
 1198  1752  1747 1
 1199  1762  1761 1
 1200  1763  1762 1
 1201  1764  1763 1
 1202  1765  1762 1
 1203  1766  1765 1
 1204  1767  1764 1
 1205  1767  1766 1
 1206  1768  1767 1
 1207  1770  1769 1
 1208  1770  1793 1
 1209  1771  1761 1
 1210  1772  1761 1
 1211  1773  1768 1
 1212  1774  1768 1
 1213  1774  1769 1
 1214  1784  1783 1
 1215  1785  1784 1
 1216  1786  1785 1
 1217  1787  1784 1
 1218  1788  1787 1
 1219  1789  1786 1
 1220  1789  1788 1
 1221  1790  1789 1
 1222  1792  1791 1
 1223  1792  1815 1
 1224  1793  1783 1
 1225  1794  1783 1
 1226  1795  1790 1
 1227  1796  1790 1
 1228  1796  1791 1
 1229  1806  1805 1
 1230  1807  1806 1
 1231  1808  1807 1
 1232  1809  1806 1
 1233  1810  1809 1
 1234  1811  1808 1
 1235  1811  1810 1
 1236  1812  1811 1
 1237  1814  1813 1
 1238  1814  1837 1
 1239  1815  1805 1
 1240  1816  1805 1
 1241  1817  1812 1
 1242  1818  1812 1
 1243  1818  1813 1
 1244  1828  1827 1
 1245  1829  1828 1
 1246  1830  1829 1
 1247  1831  1828 1
 1248  1832  1831 1
 1249  1833  1830 1
 1250  1833  1832 1
 1251  1834  1833 1
 1252  1836  1835 1
 1253  1836  1859 1
 1254  1837  1827 1
 1255  1838  1827 1
 1256  1839  1834 1
 1257  1840  1834 1
 1258  1840  1835 1
 1259  1850  1849 1
 1260  1851  1850 1
 1261  1852  1851 1
 1262  1853  1850 1
 1263  1854  1853 1
 1264  1855  1852 1
 1265  1855  1854 1
 1266  1856  1855 1
 1267  1858  1857 1
 1268  1858  1881 1
 1269  1859  1849 1
 1270  1860  1849 1
 1271  1861  1856 1
 1272  1862  1856 1
 1273  1862  1857 1
 1274  1872  1871 1
 1275  1873  1872 1
 1276  1874  1873 1
 1277  1875  1872 1
 1278  1876  1875 1
 1279  1877  1874 1
 1280  1877  1876 1
 1281  1878  1877 1
 1282  1880  1879 1
 1283  1880  1903 1
 1284  1881  1871 1
 1285  1882  1871 1
 1286  1883  1878 1
 1287  1884  1878 1
 1288  1884  1879 1
 1289  1894  1893 1
 1290  1895  1894 1
 1291  1896  1895 1
 1292  1897  1894 1
 1293  1898  1897 1
 1294  1899  1896 1
 1295  1899  1898 1
 1296  1900  1899 1
 1297  1902  1901 1
 1298  1902  1925 1
 1299  1903  1893 1
 1300  1904  1893 1
 1301  1905  1900 1
 1302  1906  1900 1
 1303  1906  1901 1
 1304  1916  1915 1
 1305  1917  1916 1
 1306  1918  1917 1
 1307  1919  1916 1
 1308  1920  1919 1
 1309  1921  1918 1
 1310  1921  1920 1
 1311  1922  1921 1
 1312  1924  1923 1
 1313  1924  1947 1
 1314  1925  1915 1
 1315  1926  1915 1
 1316  1927  1922 1
 1317  1928  1922 1
 1318  1928  1923 1
 1319  1938  1937 1
 1320  1939  1938 1
 1321  1940  1939 1
 1322  1941  1938 1
 1323  1942  1941 1
 1324  1943  1940 1
 1325  1943  1942 1
 1326  1944  1943 1
 1327  1946  1945 1
 1328  1946  1969 1
 1329  1947  1937 1
 1330  1948  1937 1
 1331  1949  1944 1
 1332  1950  1944 1
 1333  1950  1945 1
 1334  1960  1959 1
 1335  1961  1960 1
 1336  1962  1961 1
 1337  1963  1960 1
 1338  1964  1963 1
 1339  1965  1962 1
 1340  1965  1964 1
 1341  1966  1965 1
 1342  1968  1967 1
 1343  1969  1959 1
 1344  1970  1959 1
 1345  1971  1966 1
 1346  1972  1966 1
 1347  1972  1967 1
 1348  1982  1981 1
 1349  1983  1982 1
 1350  1984  1983 1
 1351  1985  1982 1
 1352  1986  1985 1
 1353  1987  1984 1
 1354  1987  1986 1
 1355  1988  1987 1
 1356  1990  1989 1
 1357  1990  2013 1
 1358  1991  1981 1
 1359  1992  1981 1
 1360  1993  1988 1
 1361  1994  1988 1
 1362  1994  1989 1
 1363  2004  2003 1
 1364  2005  2004 1
 1365  2006  2005 1
 1366  2007  2004 1
 1367  2008  2007 1
 1368  2009  2006 1
 1369  2009  2008 1
 1370  2010  2009 1
 1371  2012  2011 1
 1372  2012  2035 1
 1373  2013  2003 1
 1374  2014  2003 1
 1375  2015  2010 1
 1376  2016  2010 1
 1377  2016  2011 1
 1378  2026  2025 1
 1379  2027  2026 1
 1380  2028  2027 1
 1381  2029  2026 1
 1382  2030  2029 1
 1383  2031  2028 1
 1384  2031  2030 1
 1385  2032  2031 1
 1386  2034  2033 1
 1387  2034  2057 1
 1388  2035  2025 1
 1389  2036  2025 1
 1390  2037  2032 1
 1391  2038  2032 1
 1392  2038  2033 1
 1393  2048  2047 1
 1394  2049  2048 1
 1395  2050  2049 1
 1396  2051  2048 1
 1397  2052  2051 1
 1398  2053  2050 1
 1399  2053  2052 1
 1400  2054  2053 1
 1401  2056  2055 1
 1402  2056  2079 1
 1403  2057  2047 1
 1404  2058  2047 1
 1405  2059  2054 1
 1406  2060  2054 1
 1407  2060  2055 1
 1408  2070  2069 1
 1409  2071  2070 1
 1410  2072  2071 1
 1411  2073  2070 1
 1412  2074  2073 1
 1413  2075  2072 1
 1414  2075  2074 1
 1415  2076  2075 1
 1416  2078  2077 1
 1417  2078  2101 1
 1418  2079  2069 1
 1419  2080  2069 1
 1420  2081  2076 1
 1421  2082  2076 1
 1422  2082  2077 1
 1423  2092  2091 1
 1424  2093  2092 1
 1425  2094  2093 1
 1426  2095  2092 1
 1427  2096  2095 1
 1428  2097  2094 1
 1429  2097  2096 1
 1430  2098  2097 1
 1431  2100  2099 1
 1432  2100  2123 1
 1433  2101  2091 1
 1434  2102  2091 1
 1435  2103  2098 1
 1436  2104  2098 1
 1437  2104  2099 1
 1438  2114  2113 1
 1439  2115  2114 1
 1440  2116  2115 1
 1441  2117  2114 1
 1442  2118  2117 1
 1443  2119  2116 1
 1444  2119  2118 1
 1445  2120  2119 1
 1446  2122  2121 1
 1447  2122  2145 1
 1448  2123  2113 1
 1449  2124  2113 1
 1450  2125  2120 1
 1451  2126  2120 1
 1452  2126  2121 1
 1453  2136  2135 1
 1454  2137  2136 1
 1455  2138  2137 1
 1456  2139  2136 1
 1457  2140  2139 1
 1458  2141  2138 1
 1459  2141  2140 1
 1460  2142  2141 1
 1461  2144  2143 1
 1462  2144  2167 1
 1463  2145  2135 1
 1464  2146  2135 1
 1465  2147  2142 1
 1466  2148  2142 1
 1467  2148  2143 1
 1468  2158  2157 1
 1469  2159  2158 1
 1470  2160  2159 1
 1471  2161  2158 1
 1472  2162  2161 1
 1473  2163  2160 1
 1474  2163  2162 1
 1475  2164  2163 1
 1476  2166  2165 1
 1477  2166  2189 1
 1478  2167  2157 1
 1479  2168  2157 1
 1480  2169  2164 1
 1481  2170  2164 1
 1482  2170  2165 1
 1483  2180  2179 1
 1484  2181  2180 1
 1485  2182  2181 1
 1486  2183  2180 1
 1487  2184  2183 1
 1488  2185  2182 1
 1489  2185  2184 1
 1490  2186  2185 1
 1491  2188  2187 1
 1492  2188  2211 1
 1493  2189  2179 1
 1494  2190  2179 1
 1495  2191  2186 1
 1496  2192  2186 1
 1497  2192  2187 1
 1498  2202  2201 1
 1499  2203  2202 1
 1500  2204  2203 1
 1501  2205  2202 1
 1502  2206  2205 1
 1503  2207  2204 1
 1504  2207  2206 1
 1505  2208  2207 1
 1506  2210  2209 1
 1507  2210  2233 1
 1508  2211  2201 1
 1509  2212  2201 1
 1510  2213  2208 1
 1511  2214  2208 1
 1512  2214  2209 1
 1513  2224  2223 1
 1514  2225  2224 1
 1515  2226  2225 1
 1516  2227  2224 1
 1517  2228  2227 1
 1518  2229  2226 1
 1519  2229  2228 1
 1520  2230  2229 1
 1521  2232  2231 1
 1522  2232  2255 1
 1523  2233  2223 1
 1524  2234  2223 1
 1525  2235  2230 1
 1526  2236  2230 1
 1527  2236  2231 1
 1528  2246  2245 1
 1529  2247  2246 1
 1530  2248  2247 1
 1531  2249  2246 1
 1532  2250  2249 1
 1533  2251  2248 1
 1534  2251  2250 1
 1535  2252  2251 1
 1536  2254  2253 1
 1537  2254  2277 1
 1538  2255  2245 1
 1539  2256  2245 1
 1540  2257  2252 1
 1541  2258  2252 1
 1542  2258  2253 1
 1543  2268  2267 1
 1544  2269  2268 1
 1545  2270  2269 1
 1546  2271  2268 1
 1547  2272  2271 1
 1548  2273  2270 1
 1549  2273  2272 1
 1550  2274  2273 1
 1551  2276  2275 1
 1552  2276  2299 1
 1553  2277  2267 1
 1554  2278  2267 1
 1555  2279  2274 1
 1556  2280  2274 1
 1557  2280  2275 1
 1558  2290  2289 1
 1559  2291  2290 1
 1560  2292  2291 1
 1561  2293  2290 1
 1562  2294  2293 1
 1563  2295  2292 1
 1564  2295  2294 1
 1565  2296  2295 1
 1566  2298  2297 1
 1567  2298  2321 1
 1568  2299  2289 1
 1569  2300  2289 1
 1570  2301  2296 1
 1571  2302  2296 1
 1572  2302  2297 1
 1573  2312  2311 1
 1574  2313  2312 1
 1575  2314  2313 1
 1576  2315  2312 1
 1577  2316  2315 1
 1578  2317  2314 1
 1579  2317  2316 1
 1580  2318  2317 1
 1581  2320  2319 1
 1582  2320  2343 1
 1583  2321  2311 1
 1584  2322  2311 1
 1585  2323  2318 1
 1586  2324  2318 1
 1587  2324  2319 1
 1588  2334  2333 1
 1589  2335  2334 1
 1590  2336  2335 1
 1591  2337  2334 1
 1592  2338  2337 1
 1593  2339  2336 1
 1594  2339  2338 1
 1595  2340  2339 1
 1596  2342  2341 1
 1597  2342  2365 1
 1598  2343  2333 1
 1599  2344  2333 1
 1600  2345  2340 1
 1601  2346  2340 1
 1602  2346  2341 1
 1603  2356  2355 1
 1604  2357  2356 1
 1605  2358  2357 1
 1606  2359  2356 1
 1607  2360  2359 1
 1608  2361  2358 1
 1609  2361  2360 1
 1610  2362  2361 1
 1611  2364  2363 1
 1612  2364  2387 1
 1613  2365  2355 1
 1614  2366  2355 1
 1615  2367  2362 1
 1616  2368  2362 1
 1617  2368  2363 1
 1618  2378  2377 1
 1619  2379  2378 1
 1620  2380  2379 1
 1621  2381  2378 1
 1622  2382  2381 1
 1623  2383  2380 1
 1624  2383  2382 1
 1625  2384  2383 1
 1626  2386  2385 1
 1627  2386  2409 1
 1628  2387  2377 1
 1629  2388  2377 1
 1630  2389  2384 1
 1631  2390  2384 1
 1632  2390  2385 1
 1633  2400  2399 1
 1634  2401  2400 1
 1635  2402  2401 1
 1636  2403  2400 1
 1637  2404  2403 1
 1638  2405  2402 1
 1639  2405  2404 1
 1640  2406  2405 1
 1641  2408  2407 1
 1642  2408  2431 1
 1643  2409  2399 1
 1644  2410  2399 1
 1645  2411  2406 1
 1646  2412  2406 1
 1647  2412  2407 1
 1648  2422  2421 1
 1649  2423  2422 1
 1650  2424  2423 1
 1651  2425  2422 1
 1652  2426  2425 1
 1653  2427  2424 1
 1654  2427  2426 1
 1655  2428  2427 1
 1656  2430  2429 1
 1657  2430  2453 1
 1658  2431  2421 1
 1659  2432  2421 1
 1660  2433  2428 1
 1661  2434  2428 1
 1662  2434  2429 1
 1663  2444  2443 1
 1664  2445  2444 1
 1665  2446  2445 1
 1666  2447  2444 1
 1667  2448  2447 1
 1668  2449  2446 1
 1669  2449  2448 1
 1670  2450  2449 1
 1671  2452  2451 1
 1672  2452  2475 1
 1673  2453  2443 1
 1674  2454  2443 1
 1675  2455  2450 1
 1676  2456  2450 1
 1677  2456  2451 1
 1678  2466  2465 1
 1679  2467  2466 1
 1680  2468  2467 1
 1681  2469  2466 1
 1682  2470  2469 1
 1683  2471  2468 1
 1684  2471  2470 1
 1685  2472  2471 1
 1686  2474  2473 1
 1687  2474  2497 1
 1688  2475  2465 1
 1689  2476  2465 1
 1690  2477  2472 1
 1691  2478  2472 1
 1692  2478  2473 1
 1693  2488  2487 1
 1694  2489  2488 1
 1695  2490  2489 1
 1696  2491  2488 1
 1697  2492  2491 1
 1698  2493  2490 1
 1699  2493  2492 1
 1700  2494  2493 1
 1701  2496  2495 1
 1702  2496  2519 1
 1703  2497  2487 1
 1704  2498  2487 1
 1705  2499  2494 1
 1706  2500  2494 1
 1707  2500  2495 1
 1708  2510  2509 1
 1709  2511  2510 1
 1710  2512  2511 1
 1711  2513  2510 1
 1712  2514  2513 1
 1713  2515  2512 1
 1714  2515  2514 1
 1715  2516  2515 1
 1716  2518  2517 1
 1717  2518  2541 1
 1718  2519  2509 1
 1719  2520  2509 1
 1720  2521  2516 1
 1721  2522  2516 1
 1722  2522  2517 1
 1723  2532  2531 1
 1724  2533  2532 1
 1725  2534  2533 1
 1726  2535  2532 1
 1727  2536  2535 1
 1728  2537  2534 1
 1729  2537  2536 1
 1730  2538  2537 1
 1731  2540  2539 1
 1732  2540  2563 1
 1733  2541  2531 1
 1734  2542  2531 1
 1735  2543  2538 1
 1736  2544  2538 1
 1737  2544  2539 1
 1738  2554  2553 1
 1739  2555  2554 1
 1740  2556  2555 1
 1741  2557  2554 1
 1742  2558  2557 1
 1743  2559  2556 1
 1744  2559  2558 1
 1745  2560  2559 1
 1746  2562  2561 1
 1747  2562  2585 1
 1748  2563  2553 1
 1749  2564  2553 1
 1750  2565  2560 1
 1751  2566  2560 1
 1752  2566  2561 1
 1753  2576  2575 1
 1754  2577  2576 1
 1755  2578  2577 1
 1756  2579  2576 1
 1757  2580  2579 1
 1758  2581  2578 1
 1759  2581  2580 1
 1760  2582  2581 1
 1761  2584  2583 1
 1762  2584  2607 1
 1763  2585  2575 1
 1764  2586  2575 1
 1765  2587  2582 1
 1766  2588  2582 1
 1767  2588  2583 1
 1768  2598  2597 1
 1769  2599  2598 1
 1770  2600  2599 1
 1771  2601  2598 1
 1772  2602  2601 1
 1773  2603  2600 1
 1774  2603  2602 1
 1775  2604  2603 1
 1776  2606  2605 1
 1777  2606  2629 1
 1778  2607  2597 1
 1779  2608  2597 1
 1780  2609  2604 1
 1781  2610  2604 1
 1782  2610  2605 1
 1783  2620  2619 1
 1784  2621  2620 1
 1785  2622  2621 1
 1786  2623  2620 1
 1787  2624  2623 1
 1788  2625  2622 1
 1789  2625  2624 1
 1790  2626  2625 1
 1791  2628  2627 1
 1792  2629  2619 1
 1793  2630  2619 1
 1794  2631  2626 1
 1795  2632  2626 1
 1796  2632  2627 1
 1797  2642  2641 1
 1798  2643  2642 1
 1799  2644  2643 1
 1800  2645  2642 1
 1801  2646  2645 1
 1802  2647  2644 1
 1803  2647  2646 1
 1804  2648  2647 1
 1805  2650  2649 1
 1806  2650  2673 1
 1807  2651  2641 1
 1808  2652  2641 1
 1809  2653  2648 1
 1810  2654  2648 1
 1811  2654  2649 1
 1812  2664  2663 1
 1813  2665  2664 1
 1814  2666  2665 1
 1815  2667  2664 1
 1816  2668  2667 1
 1817  2669  2666 1
 1818  2669  2668 1
 1819  2670  2669 1
 1820  2672  2671 1
 1821  2672  2695 1
 1822  2673  2663 1
 1823  2674  2663 1
 1824  2675  2670 1
 1825  2676  2670 1
 1826  2676  2671 1
 1827  2686  2685 1
 1828  2687  2686 1
 1829  2688  2687 1
 1830  2689  2686 1
 1831  2690  2689 1
 1832  2691  2688 1
 1833  2691  2690 1
 1834  2692  2691 1
 1835  2694  2693 1
 1836  2694  2717 1
 1837  2695  2685 1
 1838  2696  2685 1
 1839  2697  2692 1
 1840  2698  2692 1
 1841  2698  2693 1
 1842  2708  2707 1
 1843  2709  2708 1
 1844  2710  2709 1
 1845  2711  2708 1
 1846  2712  2711 1
 1847  2713  2710 1
 1848  2713  2712 1
 1849  2714  2713 1
 1850  2716  2715 1
 1851  2716  2739 1
 1852  2717  2707 1
 1853  2718  2707 1
 1854  2719  2714 1
 1855  2720  2714 1
 1856  2720  2715 1
 1857  2730  2729 1
 1858  2731  2730 1
 1859  2732  2731 1
 1860  2733  2730 1
 1861  2734  2733 1
 1862  2735  2732 1
 1863  2735  2734 1
 1864  2736  2735 1
 1865  2738  2737 1
 1866  2738  2761 1
 1867  2739  2729 1
 1868  2740  2729 1
 1869  2741  2736 1
 1870  2742  2736 1
 1871  2742  2737 1
 1872  2752  2751 1
 1873  2753  2752 1
 1874  2754  2753 1
 1875  2755  2752 1
 1876  2756  2755 1
 1877  2757  2754 1
 1878  2757  2756 1
 1879  2758  2757 1
 1880  2760  2759 1
 1881  2760  2783 1
 1882  2761  2751 1
 1883  2762  2751 1
 1884  2763  2758 1
 1885  2764  2758 1
 1886  2764  2759 1
 1887  2774  2773 1
 1888  2775  2774 1
 1889  2776  2775 1
 1890  2777  2774 1
 1891  2778  2777 1
 1892  2779  2776 1
 1893  2779  2778 1
 1894  2780  2779 1
 1895  2782  2781 1
 1896  2782  2805 1
 1897  2783  2773 1
 1898  2784  2773 1
 1899  2785  2780 1
 1900  2786  2780 1
 1901  2786  2781 1
 1902  2796  2795 1
 1903  2797  2796 1
 1904  2798  2797 1
 1905  2799  2796 1
 1906  2800  2799 1
 1907  2801  2798 1
 1908  2801  2800 1
 1909  2802  2801 1
 1910  2804  2803 1
 1911  2804  2827 1
 1912  2805  2795 1
 1913  2806  2795 1
 1914  2807  2802 1
 1915  2808  2802 1
 1916  2808  2803 1
 1917  2818  2817 1
 1918  2819  2818 1
 1919  2820  2819 1
 1920  2821  2818 1
 1921  2822  2821 1
 1922  2823  2820 1
 1923  2823  2822 1
 1924  2824  2823 1
 1925  2826  2825 1
 1926  2826  2849 1
 1927  2827  2817 1
 1928  2828  2817 1
 1929  2829  2824 1
 1930  2830  2824 1
 1931  2830  2825 1
 1932  2840  2839 1
 1933  2841  2840 1
 1934  2842  2841 1
 1935  2843  2840 1
 1936  2844  2843 1
 1937  2845  2842 1
 1938  2845  2844 1
 1939  2846  2845 1
 1940  2848  2847 1
 1941  2848  2871 1
 1942  2849  2839 1
 1943  2850  2839 1
 1944  2851  2846 1
 1945  2852  2846 1
 1946  2852  2847 1
 1947  2862  2861 1
 1948  2863  2862 1
 1949  2864  2863 1
 1950  2865  2862 1
 1951  2866  2865 1
 1952  2867  2864 1
 1953  2867  2866 1
 1954  2868  2867 1
 1955  2870  2869 1
 1956  2870  2893 1
 1957  2871  2861 1
 1958  2872  2861 1
 1959  2873  2868 1
 1960  2874  2868 1
 1961  2874  2869 1
 1962  2884  2883 1
 1963  2885  2884 1
 1964  2886  2885 1
 1965  2887  2884 1
 1966  2888  2887 1
 1967  2889  2886 1
 1968  2889  2888 1
 1969  2890  2889 1
 1970  2892  2891 1
 1971  2892  2915 1
 1972  2893  2883 1
 1973  2894  2883 1
 1974  2895  2890 1
 1975  2896  2890 1
 1976  2896  2891 1
 1977  2906  2905 1
 1978  2907  2906 1
 1979  2908  2907 1
 1980  2909  2906 1
 1981  2910  2909 1
 1982  2911  2908 1
 1983  2911  2910 1
 1984  2912  2911 1
 1985  2914  2913 1
 1986  2914  2937 1
 1987  2915  2905 1
 1988  2916  2905 1
 1989  2917  2912 1
 1990  2918  2912 1
 1991  2918  2913 1
 1992  2928  2927 1
 1993  2929  2928 1
 1994  2930  2929 1
 1995  2931  2928 1
 1996  2932  2931 1
 1997  2933  2930 1
 1998  2933  2932 1
 1999  2934  2933 1
 2000  2936  2935 1
 2001  2936  2959 1
 2002  2937  2927 1
 2003  2938  2927 1
 2004  2939  2934 1
 2005  2940  2934 1
 2006  2940  2935 1
 2007  2950  2949 1
 2008  2951  2950 1
 2009  2952  2951 1
 2010  2953  2950 1
 2011  2954  2953 1
 2012  2955  2952 1
 2013  2955  2954 1
 2014  2956  2955 1
 2015  2958  2957 1
 2016  2958  2981 1
 2017  2959  2949 1
 2018  2960  2949 1
 2019  2961  2956 1
 2020  2962  2956 1
 2021  2962  2957 1
 2022  2972  2971 1
 2023  2973  2972 1
 2024  2974  2973 1
 2025  2975  2972 1
 2026  2976  2975 1
 2027  2977  2974 1
 2028  2977  2976 1
 2029  2978  2977 1
 2030  2980  2979 1
 2031  2980  3003 1
 2032  2981  2971 1
 2033  2982  2971 1
 2034  2983  2978 1
 2035  2984  2978 1
 2036  2984  2979 1
 2037  2994  2993 1
 2038  2995  2994 1
 2039  2996  2995 1
 2040  2997  2994 1
 2041  2998  2997 1
 2042  2999  2996 1
 2043  2999  2998 1
 2044  3000  2999 1
 2045  3002  3001 1
 2046  3002  3025 1
 2047  3003  2993 1
 2048  3004  2993 1
 2049  3005  3000 1
 2050  3006  3000 1
 2051  3006  3001 1
 2052  3016  3015 1
 2053  3017  3016 1
 2054  3018  3017 1
 2055  3019  3016 1
 2056  3020  3019 1
 2057  3021  3018 1
 2058  3021  3020 1
 2059  3022  3021 1
 2060  3024  3023 1
 2061  3024  3047 1
 2062  3025  3015 1
 2063  3026  3015 1
 2064  3027  3022 1
 2065  3028  3022 1
 2066  3028  3023 1
 2067  3038  3037 1
 2068  3039  3038 1
 2069  3040  3039 1
 2070  3041  3038 1
 2071  3042  3041 1
 2072  3043  3040 1
 2073  3043  3042 1
 2074  3044  3043 1
 2075  3046  3045 1
 2076  3046  3069 1
 2077  3047  3037 1
 2078  3048  3037 1
 2079  3049  3044 1
 2080  3050  3044 1
 2081  3050  3045 1
 2082  3060  3059 1
 2083  3061  3060 1
 2084  3062  3061 1
 2085  3063  3060 1
 2086  3064  3063 1
 2087  3065  3062 1
 2088  3065  3064 1
 2089  3066  3065 1
 2090  3068  3067 1
 2091  3068  3091 1
 2092  3069  3059 1
 2093  3070  3059 1
 2094  3071  3066 1
 2095  3072  3066 1
 2096  3072  3067 1
 2097  3082  3081 1
 2098  3083  3082 1
 2099  3084  3083 1
 2100  3085  3082 1
 2101  3086  3085 1
 2102  3087  3084 1
 2103  3087  3086 1
 2104  3088  3087 1
 2105  3090  3089 1
 2106  3090  3113 1
 2107  3091  3081 1
 2108  3092  3081 1
 2109  3093  3088 1
 2110  3094  3088 1
 2111  3094  3089 1
 2112  3104  3103 1
 2113  3105  3104 1
 2114  3106  3105 1
 2115  3107  3104 1
 2116  3108  3107 1
 2117  3109  3106 1
 2118  3109  3108 1
 2119  3110  3109 1
 2120  3112  3111 1
 2121  3112  3135 1
 2122  3113  3103 1
 2123  3114  3103 1
 2124  3115  3110 1
 2125  3116  3110 1
 2126  3116  3111 1
 2127  3126  3125 1
 2128  3127  3126 1
 2129  3128  3127 1
 2130  3129  3126 1
 2131  3130  3129 1
 2132  3131  3128 1
 2133  3131  3130 1
 2134  3132  3131 1
 2135  3134  3133 1
 2136  3134  3157 1
 2137  3135  3125 1
 2138  3136  3125 1
 2139  3137  3132 1
 2140  3138  3132 1
 2141  3138  3133 1
 2142  3148  3147 1
 2143  3149  3148 1
 2144  3150  3149 1
 2145  3151  3148 1
 2146  3152  3151 1
 2147  3153  3150 1
 2148  3153  3152 1
 2149  3154  3153 1
 2150  3156  3155 1
 2151  3156  3179 1
 2152  3157  3147 1
 2153  3158  3147 1
 2154  3159  3154 1
 2155  3160  3154 1
 2156  3160  3155 1
 2157  3170  3169 1
 2158  3171  3170 1
 2159  3172  3171 1
 2160  3173  3170 1
 2161  3174  3173 1
 2162  3175  3172 1
 2163  3175  3174 1
 2164  3176  3175 1
 2165  3178  3177 1
 2166  3178  3201 1
 2167  3179  3169 1
 2168  3180  3169 1
 2169  3181  3176 1
 2170  3182  3176 1
 2171  3182  3177 1
 2172  3192  3191 1
 2173  3193  3192 1
 2174  3194  3193 1
 2175  3195  3192 1
 2176  3196  3195 1
 2177  3197  3194 1
 2178  3197  3196 1
 2179  3198  3197 1
 2180  3200  3199 1
 2181  3200  3223 1
 2182  3201  3191 1
 2183  3202  3191 1
 2184  3203  3198 1
 2185  3204  3198 1
 2186  3204  3199 1
 2187  3214  3213 1
 2188  3215  3214 1
 2189  3216  3215 1
 2190  3217  3214 1
 2191  3218  3217 1
 2192  3219  3216 1
 2193  3219  3218 1
 2194  3220  3219 1
 2195  3222  3221 1
 2196  3222  3245 1
 2197  3223  3213 1
 2198  3224  3213 1
 2199  3225  3220 1
 2200  3226  3220 1
 2201  3226  3221 1
 2202  3236  3235 1
 2203  3237  3236 1
 2204  3238  3237 1
 2205  3239  3236 1
 2206  3240  3239 1
 2207  3241  3238 1
 2208  3241  3240 1
 2209  3242  3241 1
 2210  3244  3243 1
 2211  3244  3267 1
 2212  3245  3235 1
 2213  3246  3235 1
 2214  3247  3242 1
 2215  3248  3242 1
 2216  3248  3243 1
 2217  3258  3257 1
 2218  3259  3258 1
 2219  3260  3259 1
 2220  3261  3258 1
 2221  3262  3261 1
 2222  3263  3260 1
 2223  3263  3262 1
 2224  3264  3263 1
 2225  3266  3265 1
 2226  3266  3289 1
 2227  3267  3257 1
 2228  3268  3257 1
 2229  3269  3264 1
 2230  3270  3264 1
 2231  3270  3265 1
 2232  3280  3279 1
 2233  3281  3280 1
 2234  3282  3281 1
 2235  3283  3280 1
 2236  3284  3283 1
 2237  3285  3282 1
 2238  3285  3284 1
 2239  3286  3285 1
 2240  3288  3287 1
 2241  3289  3279 1
 2242  3290  3279 1
 2243  3291  3286 1
 2244  3292  3286 1
 2245  3292  3287 1
 2246  3302  3301 1
 2247  3303  3302 1
 2248  3304  3303 1
 2249  3305  3302 1
 2250  3306  3305 1
 2251  3307  3304 1
 2252  3307  3306 1
 2253  3308  3307 1
 2254  3310  3309 1
 2255  3310  3333 1
 2256  3311  3301 1
 2257  3312  3301 1
 2258  3313  3308 1
 2259  3314  3308 1
 2260  3314  3309 1
 2261  3324  3323 1
 2262  3325  3324 1
 2263  3326  3325 1
 2264  3327  3324 1
 2265  3328  3327 1
 2266  3329  3326 1
 2267  3329  3328 1
 2268  3330  3329 1
 2269  3332  3331 1
 2270  3332  3355 1
 2271  3333  3323 1
 2272  3334  3323 1
 2273  3335  3330 1
 2274  3336  3330 1
 2275  3336  3331 1
 2276  3346  3345 1
 2277  3347  3346 1
 2278  3348  3347 1
 2279  3349  3346 1
 2280  3350  3349 1
 2281  3351  3348 1
 2282  3351  3350 1
 2283  3352  3351 1
 2284  3354  3353 1
 2285  3354  3377 1
 2286  3355  3345 1
 2287  3356  3345 1
 2288  3357  3352 1
 2289  3358  3352 1
 2290  3358  3353 1
 2291  3368  3367 1
 2292  3369  3368 1
 2293  3370  3369 1
 2294  3371  3368 1
 2295  3372  3371 1
 2296  3373  3370 1
 2297  3373  3372 1
 2298  3374  3373 1
 2299  3376  3375 1
 2300  3376  3399 1
 2301  3377  3367 1
 2302  3378  3367 1
 2303  3379  3374 1
 2304  3380  3374 1
 2305  3380  3375 1
 2306  3390  3389 1
 2307  3391  3390 1
 2308  3392  3391 1
 2309  3393  3390 1
 2310  3394  3393 1
 2311  3395  3392 1
 2312  3395  3394 1
 2313  3396  3395 1
 2314  3398  3397 1
 2315  3398  3421 1
 2316  3399  3389 1
 2317  3400  3389 1
 2318  3401  3396 1
 2319  3402  3396 1
 2320  3402  3397 1
 2321  3412  3411 1
 2322  3413  3412 1
 2323  3414  3413 1
 2324  3415  3412 1
 2325  3416  3415 1
 2326  3417  3414 1
 2327  3417  3416 1
 2328  3418  3417 1
 2329  3420  3419 1
 2330  3420  3443 1
 2331  3421  3411 1
 2332  3422  3411 1
 2333  3423  3418 1
 2334  3424  3418 1
 2335  3424  3419 1
 2336  3434  3433 1
 2337  3435  3434 1
 2338  3436  3435 1
 2339  3437  3434 1
 2340  3438  3437 1
 2341  3439  3436 1
 2342  3439  3438 1
 2343  3440  3439 1
 2344  3442  3441 1
 2345  3442  3465 1
 2346  3443  3433 1
 2347  3444  3433 1
 2348  3445  3440 1
 2349  3446  3440 1
 2350  3446  3441 1
 2351  3456  3455 1
 2352  3457  3456 1
 2353  3458  3457 1
 2354  3459  3456 1
 2355  3460  3459 1
 2356  3461  3458 1
 2357  3461  3460 1
 2358  3462  3461 1
 2359  3464  3463 1
 2360  3464  3487 1
 2361  3465  3455 1
 2362  3466  3455 1
 2363  3467  3462 1
 2364  3468  3462 1
 2365  3468  3463 1
 2366  3478  3477 1
 2367  3479  3478 1
 2368  3480  3479 1
 2369  3481  3478 1
 2370  3482  3481 1
 2371  3483  3480 1
 2372  3483  3482 1
 2373  3484  3483 1
 2374  3486  3485 1
 2375  3486  3509 1
 2376  3487  3477 1
 2377  3488  3477 1
 2378  3489  3484 1
 2379  3490  3484 1
 2380  3490  3485 1
 2381  3500  3499 1
 2382  3501  3500 1
 2383  3502  3501 1
 2384  3503  3500 1
 2385  3504  3503 1
 2386  3505  3502 1
 2387  3505  3504 1
 2388  3506  3505 1
 2389  3508  3507 1
 2390  3508  3531 1
 2391  3509  3499 1
 2392  3510  3499 1
 2393  3511  3506 1
 2394  3512  3506 1
 2395  3512  3507 1
 2396  3522  3521 1
 2397  3523  3522 1
 2398  3524  3523 1
 2399  3525  3522 1
 2400  3526  3525 1
 2401  3527  3524 1
 2402  3527  3526 1
 2403  3528  3527 1
 2404  3530  3529 1
 2405  3530  3553 1
 2406  3531  3521 1
 2407  3532  3521 1
 2408  3533  3528 1
 2409  3534  3528 1
 2410  3534  3529 1
 2411  3544  3543 1
 2412  3545  3544 1
 2413  3546  3545 1
 2414  3547  3544 1
 2415  3548  3547 1
 2416  3549  3546 1
 2417  3549  3548 1
 2418  3550  3549 1
 2419  3552  3551 1
 2420  3552  3575 1
 2421  3553  3543 1
 2422  3554  3543 1
 2423  3555  3550 1
 2424  3556  3550 1
 2425  3556  3551 1
 2426  3566  3565 1
 2427  3567  3566 1
 2428  3568  3567 1
 2429  3569  3566 1
 2430  3570  3569 1
 2431  3571  3568 1
 2432  3571  3570 1
 2433  3572  3571 1
 2434  3574  3573 1
 2435  3574  3597 1
 2436  3575  3565 1
 2437  3576  3565 1
 2438  3577  3572 1
 2439  3578  3572 1
 2440  3578  3573 1
 2441  3588  3587 1
 2442  3589  3588 1
 2443  3590  3589 1
 2444  3591  3588 1
 2445  3592  3591 1
 2446  3593  3590 1
 2447  3593  3592 1
 2448  3594  3593 1
 2449  3596  3595 1
 2450  3596  3619 1
 2451  3597  3587 1
 2452  3598  3587 1
 2453  3599  3594 1
 2454  3600  3594 1
 2455  3600  3595 1
 2456  3610  3609 1
 2457  3611  3610 1
 2458  3612  3611 1
 2459  3613  3610 1
 2460  3614  3613 1
 2461  3615  3612 1
 2462  3615  3614 1
 2463  3616  3615 1
 2464  3618  3617 1
 2465  3618  3641 1
 2466  3619  3609 1
 2467  3620  3609 1
 2468  3621  3616 1
 2469  3622  3616 1
 2470  3622  3617 1
 2471  3632  3631 1
 2472  3633  3632 1
 2473  3634  3633 1
 2474  3635  3632 1
 2475  3636  3635 1
 2476  3637  3634 1
 2477  3637  3636 1
 2478  3638  3637 1
 2479  3640  3639 1
 2480  3640  3663 1
 2481  3641  3631 1
 2482  3642  3631 1
 2483  3643  3638 1
 2484  3644  3638 1
 2485  3644  3639 1
 2486  3654  3653 1
 2487  3655  3654 1
 2488  3656  3655 1
 2489  3657  3654 1
 2490  3658  3657 1
 2491  3659  3656 1
 2492  3659  3658 1
 2493  3660  3659 1
 2494  3662  3661 1
 2495  3662  3685 1
 2496  3663  3653 1
 2497  3664  3653 1
 2498  3665  3660 1
 2499  3666  3660 1
 2500  3666  3661 1
 2501  3676  3675 1
 2502  3677  3676 1
 2503  3678  3677 1
 2504  3679  3676 1
 2505  3680  3679 1
 2506  3681  3678 1
 2507  3681  3680 1
 2508  3682  3681 1
 2509  3684  3683 1
 2510  3684  3707 1
 2511  3685  3675 1
 2512  3686  3675 1
 2513  3687  3682 1
 2514  3688  3682 1
 2515  3688  3683 1
 2516  3698  3697 1
 2517  3699  3698 1
 2518  3700  3699 1
 2519  3701  3698 1
 2520  3702  3701 1
 2521  3703  3700 1
 2522  3703  3702 1
 2523  3704  3703 1
 2524  3706  3705 1
 2525  3706  3729 1
 2526  3707  3697 1
 2527  3708  3697 1
 2528  3709  3704 1
 2529  3710  3704 1
 2530  3710  3705 1
 2531  3720  3719 1
 2532  3721  3720 1
 2533  3722  3721 1
 2534  3723  3720 1
 2535  3724  3723 1
 2536  3725  3722 1
 2537  3725  3724 1
 2538  3726  3725 1
 2539  3728  3727 1
 2540  3728  3751 1
 2541  3729  3719 1
 2542  3730  3719 1
 2543  3731  3726 1
 2544  3732  3726 1
 2545  3732  3727 1
 2546  3742  3741 1
 2547  3743  3742 1
 2548  3744  3743 1
 2549  3745  3742 1
 2550  3746  3745 1
 2551  3747  3744 1
 2552  3747  3746 1
 2553  3748  3747 1
 2554  3750  3749 1
 2555  3750  3773 1
 2556  3751  3741 1
 2557  3752  3741 1
 2558  3753  3748 1
 2559  3754  3748 1
 2560  3754  3749 1
 2561  3764  3763 1
 2562  3765  3764 1
 2563  3766  3765 1
 2564  3767  3764 1
 2565  3768  3767 1
 2566  3769  3766 1
 2567  3769  3768 1
 2568  3770  3769 1
 2569  3772  3771 1
 2570  3772  3795 1
 2571  3773  3763 1
 2572  3774  3763 1
 2573  3775  3770 1
 2574  3776  3770 1
 2575  3776  3771 1
 2576  3786  3785 1
 2577  3787  3786 1
 2578  3788  3787 1
 2579  3789  3786 1
 2580  3790  3789 1
 2581  3791  3788 1
 2582  3791  3790 1
 2583  3792  3791 1
 2584  3794  3793 1
 2585  3794  3817 1
 2586  3795  3785 1
 2587  3796  3785 1
 2588  3797  3792 1
 2589  3798  3792 1
 2590  3798  3793 1
 2591  3808  3807 1
 2592  3809  3808 1
 2593  3810  3809 1
 2594  3811  3808 1
 2595  3812  3811 1
 2596  3813  3810 1
 2597  3813  3812 1
 2598  3814  3813 1
 2599  3816  3815 1
 2600  3816  3839 1
 2601  3817  3807 1
 2602  3818  3807 1
 2603  3819  3814 1
 2604  3820  3814 1
 2605  3820  3815 1
 2606  3830  3829 1
 2607  3831  3830 1
 2608  3832  3831 1
 2609  3833  3830 1
 2610  3834  3833 1
 2611  3835  3832 1
 2612  3835  3834 1
 2613  3836  3835 1
 2614  3838  3837 1
 2615  3838  3861 1
 2616  3839  3829 1
 2617  3840  3829 1
 2618  3841  3836 1
 2619  3842  3836 1
 2620  3842  3837 1
 2621  3852  3851 1
 2622  3853  3852 1
 2623  3854  3853 1
 2624  3855  3852 1
 2625  3856  3855 1
 2626  3857  3854 1
 2627  3857  3856 1
 2628  3858  3857 1
 2629  3860  3859 1
 2630  3860  3883 1
 2631  3861  3851 1
 2632  3862  3851 1
 2633  3863  3858 1
 2634  3864  3858 1
 2635  3864  3859 1
 2636  3874  3873 1
 2637  3875  3874 1
 2638  3876  3875 1
 2639  3877  3874 1
 2640  3878  3877 1
 2641  3879  3876 1
 2642  3879  3878 1
 2643  3880  3879 1
 2644  3882  3881 1
 2645  3882  3905 1
 2646  3883  3873 1
 2647  3884  3873 1
 2648  3885  3880 1
 2649  3886  3880 1
 2650  3886  3881 1
 2651  3896  3895 1
 2652  3897  3896 1
 2653  3898  3897 1
 2654  3899  3896 1
 2655  3900  3899 1
 2656  3901  3898 1
 2657  3901  3900 1
 2658  3902  3901 1
 2659  3904  3903 1
 2660  3904  3927 1
 2661  3905  3895 1
 2662  3906  3895 1
 2663  3907  3902 1
 2664  3908  3902 1
 2665  3908  3903 1
 2666  3918  3917 1
 2667  3919  3918 1
 2668  3920  3919 1
 2669  3921  3918 1
 2670  3922  3921 1
 2671  3923  3920 1
 2672  3923  3922 1
 2673  3924  3923 1
 2674  3926  3925 1
 2675  3926  3949 1
 2676  3927  3917 1
 2677  3928  3917 1
 2678  3929  3924 1
 2679  3930  3924 1
 2680  3930  3925 1
 2681  3940  3939 1
 2682  3941  3940 1
 2683  3942  3941 1
 2684  3943  3940 1
 2685  3944  3943 1
 2686  3945  3942 1
 2687  3945  3944 1
 2688  3946  3945 1
 2689  3948  3947 1
 2690  3949  3939 1
 2691  3950  3939 1
 2692  3951  3946 1
 2693  3952  3946 1
 2694  3952  3947 1
 2695  3962  3961 1
 2696  3963  3962 1
 2697  3964  3963 1
 2698  3965  3962 1
 2699  3966  3965 1
 2700  3967  3964 1
 2701  3967  3966 1
 2702  3968  3967 1
 2703  3970  3969 1
 2704  3970  3993 1
 2705  3971  3961 1
 2706  3972  3961 1
 2707  3973  3968 1
 2708  3974  3968 1
 2709  3974  3969 1
 2710  3984  3983 1
 2711  3985  3984 1
 2712  3986  3985 1
 2713  3987  3984 1
 2714  3988  3987 1
 2715  3989  3986 1
 2716  3989  3988 1
 2717  3990  3989 1
 2718  3992  3991 1
 2719  3992  4015 1
 2720  3993  3983 1
 2721  3994  3983 1
 2722  3995  3990 1
 2723  3996  3990 1
 2724  3996  3991 1
 2725  4006  4005 1
 2726  4007  4006 1
 2727  4008  4007 1
 2728  4009  4006 1
 2729  4010  4009 1
 2730  4011  4008 1
 2731  4011  4010 1
 2732  4012  4011 1
 2733  4014  4013 1
 2734  4014  4037 1
 2735  4015  4005 1
 2736  4016  4005 1
 2737  4017  4012 1
 2738  4018  4012 1
 2739  4018  4013 1
 2740  4028  4027 1
 2741  4029  4028 1
 2742  4030  4029 1
 2743  4031  4028 1
 2744  4032  4031 1
 2745  4033  4030 1
 2746  4033  4032 1
 2747  4034  4033 1
 2748  4036  4035 1
 2749  4036  4059 1
 2750  4037  4027 1
 2751  4038  4027 1
 2752  4039  4034 1
 2753  4040  4034 1
 2754  4040  4035 1
 2755  4050  4049 1
 2756  4051  4050 1
 2757  4052  4051 1
 2758  4053  4050 1
 2759  4054  4053 1
 2760  4055  4052 1
 2761  4055  4054 1
 2762  4056  4055 1
 2763  4058  4057 1
 2764  4058  4081 1
 2765  4059  4049 1
 2766  4060  4049 1
 2767  4061  4056 1
 2768  4062  4056 1
 2769  4062  4057 1
 2770  4072  4071 1
 2771  4073  4072 1
 2772  4074  4073 1
 2773  4075  4072 1
 2774  4076  4075 1
 2775  4077  4074 1
 2776  4077  4076 1
 2777  4078  4077 1
 2778  4080  4079 1
 2779  4080  4103 1
 2780  4081  4071 1
 2781  4082  4071 1
 2782  4083  4078 1
 2783  4084  4078 1
 2784  4084  4079 1
 2785  4094  4093 1
 2786  4095  4094 1
 2787  4096  4095 1
 2788  4097  4094 1
 2789  4098  4097 1
 2790  4099  4096 1
 2791  4099  4098 1
 2792  4100  4099 1
 2793  4102  4101 1
 2794  4102  4125 1
 2795  4103  4093 1
 2796  4104  4093 1
 2797  4105  4100 1
 2798  4106  4100 1
 2799  4106  4101 1
 2800  4116  4115 1
 2801  4117  4116 1
 2802  4118  4117 1
 2803  4119  4116 1
 2804  4120  4119 1
 2805  4121  4118 1
 2806  4121  4120 1
 2807  4122  4121 1
 2808  4124  4123 1
 2809  4124  4147 1
 2810  4125  4115 1
 2811  4126  4115 1
 2812  4127  4122 1
 2813  4128  4122 1
 2814  4128  4123 1
 2815  4138  4137 1
 2816  4139  4138 1
 2817  4140  4139 1
 2818  4141  4138 1
 2819  4142  4141 1
 2820  4143  4140 1
 2821  4143  4142 1
 2822  4144  4143 1
 2823  4146  4145 1
 2824  4146  4169 1
 2825  4147  4137 1
 2826  4148  4137 1
 2827  4149  4144 1
 2828  4150  4144 1
 2829  4150  4145 1
 2830  4160  4159 1
 2831  4161  4160 1
 2832  4162  4161 1
 2833  4163  4160 1
 2834  4164  4163 1
 2835  4165  4162 1
 2836  4165  4164 1
 2837  4166  4165 1
 2838  4168  4167 1
 2839  4168  4191 1
 2840  4169  4159 1
 2841  4170  4159 1
 2842  4171  4166 1
 2843  4172  4166 1
 2844  4172  4167 1
 2845  4182  4181 1
 2846  4183  4182 1
 2847  4184  4183 1
 2848  4185  4182 1
 2849  4186  4185 1
 2850  4187  4184 1
 2851  4187  4186 1
 2852  4188  4187 1
 2853  4190  4189 1
 2854  4190  4213 1
 2855  4191  4181 1
 2856  4192  4181 1
 2857  4193  4188 1
 2858  4194  4188 1
 2859  4194  4189 1
 2860  4204  4203 1
 2861  4205  4204 1
 2862  4206  4205 1
 2863  4207  4204 1
 2864  4208  4207 1
 2865  4209  4206 1
 2866  4209  4208 1
 2867  4210  4209 1
 2868  4212  4211 1
 2869  4212  4235 1
 2870  4213  4203 1
 2871  4214  4203 1
 2872  4215  4210 1
 2873  4216  4210 1
 2874  4216  4211 1
 2875  4226  4225 1
 2876  4227  4226 1
 2877  4228  4227 1
 2878  4229  4226 1
 2879  4230  4229 1
 2880  4231  4228 1
 2881  4231  4230 1
 2882  4232  4231 1
 2883  4234  4233 1
 2884  4234  4257 1
 2885  4235  4225 1
 2886  4236  4225 1
 2887  4237  4232 1
 2888  4238  4232 1
 2889  4238  4233 1
 2890  4248  4247 1
 2891  4249  4248 1
 2892  4250  4249 1
 2893  4251  4248 1
 2894  4252  4251 1
 2895  4253  4250 1
 2896  4253  4252 1
 2897  4254  4253 1
 2898  4256  4255 1
 2899  4256  4279 1
 2900  4257  4247 1
 2901  4258  4247 1
 2902  4259  4254 1
 2903  4260  4254 1
 2904  4260  4255 1
 2905  4270  4269 1
 2906  4271  4270 1
 2907  4272  4271 1
 2908  4273  4270 1
 2909  4274  4273 1
 2910  4275  4272 1
 2911  4275  4274 1
 2912  4276  4275 1
 2913  4278  4277 1
 2914  4278  4301 1
 2915  4279  4269 1
 2916  4280  4269 1
 2917  4281  4276 1
 2918  4282  4276 1
 2919  4282  4277 1
 2920  4292  4291 1
 2921  4293  4292 1
 2922  4294  4293 1
 2923  4295  4292 1
 2924  4296  4295 1
 2925  4297  4294 1
 2926  4297  4296 1
 2927  4298  4297 1
 2928  4300  4299 1
 2929  4300  4323 1
 2930  4301  4291 1
 2931  4302  4291 1
 2932  4303  4298 1
 2933  4304  4298 1
 2934  4304  4299 1
 2935  4314  4313 1
 2936  4315  4314 1
 2937  4316  4315 1
 2938  4317  4314 1
 2939  4318  4317 1
 2940  4319  4316 1
 2941  4319  4318 1
 2942  4320  4319 1
 2943  4322  4321 1
 2944  4322  4345 1
 2945  4323  4313 1
 2946  4324  4313 1
 2947  4325  4320 1
 2948  4326  4320 1
 2949  4326  4321 1
 2950  4336  4335 1
 2951  4337  4336 1
 2952  4338  4337 1
 2953  4339  4336 1
 2954  4340  4339 1
 2955  4341  4338 1
 2956  4341  4340 1
 2957  4342  4341 1
 2958  4344  4343 1
 2959  4344  4367 1
 2960  4345  4335 1
 2961  4346  4335 1
 2962  4347  4342 1
 2963  4348  4342 1
 2964  4348  4343 1
 2965  4358  4357 1
 2966  4359  4358 1
 2967  4360  4359 1
 2968  4361  4358 1
 2969  4362  4361 1
 2970  4363  4360 1
 2971  4363  4362 1
 2972  4364  4363 1
 2973  4366  4365 1
 2974  4366  4389 1
 2975  4367  4357 1
 2976  4368  4357 1
 2977  4369  4364 1
 2978  4370  4364 1
 2979  4370  4365 1
 2980  4380  4379 1
 2981  4381  4380 1
 2982  4382  4381 1
 2983  4383  4380 1
 2984  4384  4383 1
 2985  4385  4382 1
 2986  4385  4384 1
 2987  4386  4385 1
 2988  4388  4387 1
 2989  4388  4411 1
 2990  4389  4379 1
 2991  4390  4379 1
 2992  4391  4386 1
 2993  4392  4386 1
 2994  4392  4387 1
 2995  4402  4401 1
 2996  4403  4402 1
 2997  4404  4403 1
 2998  4405  4402 1
 2999  4406  4405 1
 3000  4407  4404 1
 3001  4407  4406 1
 3002  4408  4407 1
 3003  4410  4409 1
 3004  4410  4433 1
 3005  4411  4401 1
 3006  4412  4401 1
 3007  4413  4408 1
 3008  4414  4408 1
 3009  4414  4409 1
 3010  4424  4423 1
 3011  4425  4424 1
 3012  4426  4425 1
 3013  4427  4424 1
 3014  4428  4427 1
 3015  4429  4426 1
 3016  4429  4428 1
 3017  4430  4429 1
 3018  4432  4431 1
 3019  4432  4455 1
 3020  4433  4423 1
 3021  4434  4423 1
 3022  4435  4430 1
 3023  4436  4430 1
 3024  4436  4431 1
 3025  4446  4445 1
 3026  4447  4446 1
 3027  4448  4447 1
 3028  4449  4446 1
 3029  4450  4449 1
 3030  4451  4448 1
 3031  4451  4450 1
 3032  4452  4451 1
 3033  4454  4453 1
 3034  4454  4477 1
 3035  4455  4445 1
 3036  4456  4445 1
 3037  4457  4452 1
 3038  4458  4452 1
 3039  4458  4453 1
 3040  4468  4467 1
 3041  4469  4468 1
 3042  4470  4469 1
 3043  4471  4468 1
 3044  4472  4471 1
 3045  4473  4470 1
 3046  4473  4472 1
 3047  4474  4473 1
 3048  4476  4475 1
 3049  4476  4499 1
 3050  4477  4467 1
 3051  4478  4467 1
 3052  4479  4474 1
 3053  4480  4474 1
 3054  4480  4475 1
 3055  4490  4489 1
 3056  4491  4490 1
 3057  4492  4491 1
 3058  4493  4490 1
 3059  4494  4493 1
 3060  4495  4492 1
 3061  4495  4494 1
 3062  4496  4495 1
 3063  4498  4497 1
 3064  4498  4521 1
 3065  4499  4489 1
 3066  4500  4489 1
 3067  4501  4496 1
 3068  4502  4496 1
 3069  4502  4497 1
 3070  4512  4511 1
 3071  4513  4512 1
 3072  4514  4513 1
 3073  4515  4512 1
 3074  4516  4515 1
 3075  4517  4514 1
 3076  4517  4516 1
 3077  4518  4517 1
 3078  4520  4519 1
 3079  4520  4543 1
 3080  4521  4511 1
 3081  4522  4511 1
 3082  4523  4518 1
 3083  4524  4518 1
 3084  4524  4519 1
 3085  4534  4533 1
 3086  4535  4534 1
 3087  4536  4535 1
 3088  4537  4534 1
 3089  4538  4537 1
 3090  4539  4536 1
 3091  4539  4538 1
 3092  4540  4539 1
 3093  4542  4541 1
 3094  4542  4565 1
 3095  4543  4533 1
 3096  4544  4533 1
 3097  4545  4540 1
 3098  4546  4540 1
 3099  4546  4541 1
 3100  4556  4555 1
 3101  4557  4556 1
 3102  4558  4557 1
 3103  4559  4556 1
 3104  4560  4559 1
 3105  4561  4558 1
 3106  4561  4560 1
 3107  4562  4561 1
 3108  4564  4563 1
 3109  4564  4587 1
 3110  4565  4555 1
 3111  4566  4555 1
 3112  4567  4562 1
 3113  4568  4562 1
 3114  4568  4563 1
 3115  4578  4577 1
 3116  4579  4578 1
 3117  4580  4579 1
 3118  4581  4578 1
 3119  4582  4581 1
 3120  4583  4580 1
 3121  4583  4582 1
 3122  4584  4583 1
 3123  4586  4585 1
 3124  4586  4609 1
 3125  4587  4577 1
 3126  4588  4577 1
 3127  4589  4584 1
 3128  4590  4584 1
 3129  4590  4585 1
 3130  4600  4599 1
 3131  4601  4600 1
 3132  4602  4601 1
 3133  4603  4600 1
 3134  4604  4603 1
 3135  4605  4602 1
 3136  4605  4604 1
 3137  4606  4605 1
 3138  4608  4607 1
 3139  4609  4599 1
 3140  4610  4599 1
 3141  4611  4606 1
 3142  4612  4606 1
 3143  4612  4607 1
 3144  4622  4621 1
 3145  4623  4622 1
 3146  4624  4623 1
 3147  4625  4622 1
 3148  4626  4625 1
 3149  4627  4624 1
 3150  4627  4626 1
 3151  4628  4627 1
 3152  4630  4629 1
 3153  4630  4653 1
 3154  4631  4621 1
 3155  4632  4621 1
 3156  4633  4628 1
 3157  4634  4628 1
 3158  4634  4629 1
 3159  4644  4643 1
 3160  4645  4644 1
 3161  4646  4645 1
 3162  4647  4644 1
 3163  4648  4647 1
 3164  4649  4646 1
 3165  4649  4648 1
 3166  4650  4649 1
 3167  4652  4651 1
 3168  4652  4675 1
 3169  4653  4643 1
 3170  4654  4643 1
 3171  4655  4650 1
 3172  4656  4650 1
 3173  4656  4651 1
 3174  4666  4665 1
 3175  4667  4666 1
 3176  4668  4667 1
 3177  4669  4666 1
 3178  4670  4669 1
 3179  4671  4668 1
 3180  4671  4670 1
 3181  4672  4671 1
 3182  4674  4673 1
 3183  4674  4697 1
 3184  4675  4665 1
 3185  4676  4665 1
 3186  4677  4672 1
 3187  4678  4672 1
 3188  4678  4673 1
 3189  4688  4687 1
 3190  4689  4688 1
 3191  4690  4689 1
 3192  4691  4688 1
 3193  4692  4691 1
 3194  4693  4690 1
 3195  4693  4692 1
 3196  4694  4693 1
 3197  4696  4695 1
 3198  4696  4719 1
 3199  4697  4687 1
 3200  4698  4687 1
 3201  4699  4694 1
 3202  4700  4694 1
 3203  4700  4695 1
 3204  4710  4709 1
 3205  4711  4710 1
 3206  4712  4711 1
 3207  4713  4710 1
 3208  4714  4713 1
 3209  4715  4712 1
 3210  4715  4714 1
 3211  4716  4715 1
 3212  4718  4717 1
 3213  4718  4741 1
 3214  4719  4709 1
 3215  4720  4709 1
 3216  4721  4716 1
 3217  4722  4716 1
 3218  4722  4717 1
 3219  4732  4731 1
 3220  4733  4732 1
 3221  4734  4733 1
 3222  4735  4732 1
 3223  4736  4735 1
 3224  4737  4734 1
 3225  4737  4736 1
 3226  4738  4737 1
 3227  4740  4739 1
 3228  4740  4763 1
 3229  4741  4731 1
 3230  4742  4731 1
 3231  4743  4738 1
 3232  4744  4738 1
 3233  4744  4739 1
 3234  4754  4753 1
 3235  4755  4754 1
 3236  4756  4755 1
 3237  4757  4754 1
 3238  4758  4757 1
 3239  4759  4756 1
 3240  4759  4758 1
 3241  4760  4759 1
 3242  4762  4761 1
 3243  4762  4785 1
 3244  4763  4753 1
 3245  4764  4753 1
 3246  4765  4760 1
 3247  4766  4760 1
 3248  4766  4761 1
 3249  4776  4775 1
 3250  4777  4776 1
 3251  4778  4777 1
 3252  4779  4776 1
 3253  4780  4779 1
 3254  4781  4778 1
 3255  4781  4780 1
 3256  4782  4781 1
 3257  4784  4783 1
 3258  4784  4807 1
 3259  4785  4775 1
 3260  4786  4775 1
 3261  4787  4782 1
 3262  4788  4782 1
 3263  4788  4783 1
 3264  4798  4797 1
 3265  4799  4798 1
 3266  4800  4799 1
 3267  4801  4798 1
 3268  4802  4801 1
 3269  4803  4800 1
 3270  4803  4802 1
 3271  4804  4803 1
 3272  4806  4805 1
 3273  4806  4829 1
 3274  4807  4797 1
 3275  4808  4797 1
 3276  4809  4804 1
 3277  4810  4804 1
 3278  4810  4805 1
 3279  4820  4819 1
 3280  4821  4820 1
 3281  4822  4821 1
 3282  4823  4820 1
 3283  4824  4823 1
 3284  4825  4822 1
 3285  4825  4824 1
 3286  4826  4825 1
 3287  4828  4827 1
 3288  4828  4851 1
 3289  4829  4819 1
 3290  4830  4819 1
 3291  4831  4826 1
 3292  4832  4826 1
 3293  4832  4827 1
 3294  4842  4841 1
 3295  4843  4842 1
 3296  4844  4843 1
 3297  4845  4842 1
 3298  4846  4845 1
 3299  4847  4844 1
 3300  4847  4846 1
 3301  4848  4847 1
 3302  4850  4849 1
 3303  4850  4873 1
 3304  4851  4841 1
 3305  4852  4841 1
 3306  4853  4848 1
 3307  4854  4848 1
 3308  4854  4849 1
 3309  4864  4863 1
 3310  4865  4864 1
 3311  4866  4865 1
 3312  4867  4864 1
 3313  4868  4867 1
 3314  4869  4866 1
 3315  4869  4868 1
 3316  4870  4869 1
 3317  4872  4871 1
 3318  4872  4895 1
 3319  4873  4863 1
 3320  4874  4863 1
 3321  4875  4870 1
 3322  4876  4870 1
 3323  4876  4871 1
 3324  4886  4885 1
 3325  4887  4886 1
 3326  4888  4887 1
 3327  4889  4886 1
 3328  4890  4889 1
 3329  4891  4888 1
 3330  4891  4890 1
 3331  4892  4891 1
 3332  4894  4893 1
 3333  4894  4917 1
 3334  4895  4885 1
 3335  4896  4885 1
 3336  4897  4892 1
 3337  4898  4892 1
 3338  4898  4893 1
 3339  4908  4907 1
 3340  4909  4908 1
 3341  4910  4909 1
 3342  4911  4908 1
 3343  4912  4911 1
 3344  4913  4910 1
 3345  4913  4912 1
 3346  4914  4913 1
 3347  4916  4915 1
 3348  4916  4939 1
 3349  4917  4907 1
 3350  4918  4907 1
 3351  4919  4914 1
 3352  4920  4914 1
 3353  4920  4915 1
 3354  4930  4929 1
 3355  4931  4930 1
 3356  4932  4931 1
 3357  4933  4930 1
 3358  4934  4933 1
 3359  4935  4932 1
 3360  4935  4934 1
 3361  4936  4935 1
 3362  4938  4937 1
 3363  4938  4961 1
 3364  4939  4929 1
 3365  4940  4929 1
 3366  4941  4936 1
 3367  4942  4936 1
 3368  4942  4937 1
 3369  4952  4951 1
 3370  4953  4952 1
 3371  4954  4953 1
 3372  4955  4952 1
 3373  4956  4955 1
 3374  4957  4954 1
 3375  4957  4956 1
 3376  4958  4957 1
 3377  4960  4959 1
 3378  4960  4983 1
 3379  4961  4951 1
 3380  4962  4951 1
 3381  4963  4958 1
 3382  4964  4958 1
 3383  4964  4959 1
 3384  4974  4973 1
 3385  4975  4974 1
 3386  4976  4975 1
 3387  4977  4974 1
 3388  4978  4977 1
 3389  4979  4976 1
 3390  4979  4978 1
 3391  4980  4979 1
 3392  4982  4981 1
 3393  4982  5005 1
 3394  4983  4973 1
 3395  4984  4973 1
 3396  4985  4980 1
 3397  4986  4980 1
 3398  4986  4981 1
 3399  4996  4995 1
 3400  4997  4996 1
 3401  4998  4997 1
 3402  4999  4996 1
 3403  5000  4999 1
 3404  5001  4998 1
 3405  5001  5000 1
 3406  5002  5001 1
 3407  5004  5003 1
 3408  5004  5027 1
 3409  5005  4995 1
 3410  5006  4995 1
 3411  5007  5002 1
 3412  5008  5002 1
 3413  5008  5003 1
 3414  5018  5017 1
 3415  5019  5018 1
 3416  5020  5019 1
 3417  5021  5018 1
 3418  5022  5021 1
 3419  5023  5020 1
 3420  5023  5022 1
 3421  5024  5023 1
 3422  5026  5025 1
 3423  5026  5049 1
 3424  5027  5017 1
 3425  5028  5017 1
 3426  5029  5024 1
 3427  5030  5024 1
 3428  5030  5025 1
 3429  5040  5039 1
 3430  5041  5040 1
 3431  5042  5041 1
 3432  5043  5040 1
 3433  5044  5043 1
 3434  5045  5042 1
 3435  5045  5044 1
 3436  5046  5045 1
 3437  5048  5047 1
 3438  5048  5071 1
 3439  5049  5039 1
 3440  5050  5039 1
 3441  5051  5046 1
 3442  5052  5046 1
 3443  5052  5047 1
 3444  5062  5061 1
 3445  5063  5062 1
 3446  5064  5063 1
 3447  5065  5062 1
 3448  5066  5065 1
 3449  5067  5064 1
 3450  5067  5066 1
 3451  5068  5067 1
 3452  5070  5069 1
 3453  5070  5093 1
 3454  5071  5061 1
 3455  5072  5061 1
 3456  5073  5068 1
 3457  5074  5068 1
 3458  5074  5069 1
 3459  5084  5083 1
 3460  5085  5084 1
 3461  5086  5085 1
 3462  5087  5084 1
 3463  5088  5087 1
 3464  5089  5086 1
 3465  5089  5088 1
 3466  5090  5089 1
 3467  5092  5091 1
 3468  5092  5115 1
 3469  5093  5083 1
 3470  5094  5083 1
 3471  5095  5090 1
 3472  5096  5090 1
 3473  5096  5091 1
 3474  5106  5105 1
 3475  5107  5106 1
 3476  5108  5107 1
 3477  5109  5106 1
 3478  5110  5109 1
 3479  5111  5108 1
 3480  5111  5110 1
 3481  5112  5111 1
 3482  5114  5113 1
 3483  5114  5137 1
 3484  5115  5105 1
 3485  5116  5105 1
 3486  5117  5112 1
 3487  5118  5112 1
 3488  5118  5113 1
 3489  5128  5127 1
 3490  5129  5128 1
 3491  5130  5129 1
 3492  5131  5128 1
 3493  5132  5131 1
 3494  5133  5130 1
 3495  5133  5132 1
 3496  5134  5133 1
 3497  5136  5135 1
 3498  5136  5159 1
 3499  5137  5127 1
 3500  5138  5127 1
 3501  5139  5134 1
 3502  5140  5134 1
 3503  5140  5135 1
 3504  5150  5149 1
 3505  5151  5150 1
 3506  5152  5151 1
 3507  5153  5150 1
 3508  5154  5153 1
 3509  5155  5152 1
 3510  5155  5154 1
 3511  5156  5155 1
 3512  5158  5157 1
 3513  5158  5181 1
 3514  5159  5149 1
 3515  5160  5149 1
 3516  5161  5156 1
 3517  5162  5156 1
 3518  5162  5157 1
 3519  5172  5171 1
 3520  5173  5172 1
 3521  5174  5173 1
 3522  5175  5172 1
 3523  5176  5175 1
 3524  5177  5174 1
 3525  5177  5176 1
 3526  5178  5177 1
 3527  5180  5179 1
 3528  5180  5203 1
 3529  5181  5171 1
 3530  5182  5171 1
 3531  5183  5178 1
 3532  5184  5178 1
 3533  5184  5179 1
 3534  5194  5193 1
 3535  5195  5194 1
 3536  5196  5195 1
 3537  5197  5194 1
 3538  5198  5197 1
 3539  5199  5196 1
 3540  5199  5198 1
 3541  5200  5199 1
 3542  5202  5201 1
 3543  5202  5225 1
 3544  5203  5193 1
 3545  5204  5193 1
 3546  5205  5200 1
 3547  5206  5200 1
 3548  5206  5201 1
 3549  5216  5215 1
 3550  5217  5216 1
 3551  5218  5217 1
 3552  5219  5216 1
 3553  5220  5219 1
 3554  5221  5218 1
 3555  5221  5220 1
 3556  5222  5221 1
 3557  5224  5223 1
 3558  5224  5247 1
 3559  5225  5215 1
 3560  5226  5215 1
 3561  5227  5222 1
 3562  5228  5222 1
 3563  5228  5223 1
 3564  5238  5237 1
 3565  5239  5238 1
 3566  5240  5239 1
 3567  5241  5238 1
 3568  5242  5241 1
 3569  5243  5240 1
 3570  5243  5242 1
 3571  5244  5243 1
 3572  5246  5245 1
 3573  5246  5269 1
 3574  5247  5237 1
 3575  5248  5237 1
 3576  5249  5244 1
 3577  5250  5244 1
 3578  5250  5245 1
 3579  5260  5259 1
 3580  5261  5260 1
 3581  5262  5261 1
 3582  5263  5260 1
 3583  5264  5263 1
 3584  5265  5262 1
 3585  5265  5264 1
 3586  5266  5265 1
 3587  5268  5267 1
 3588  5269  5259 1
 3589  5270  5259 1
 3590  5271  5266 1
 3591  5272  5266 1
 3592  5272  5267 1
 3593  5282  5281 1
 3594  5283  5282 1
 3595  5284  5283 1
 3596  5285  5282 1
 3597  5286  5285 1
 3598  5287  5284 1
 3599  5287  5286 1
 3600  5288  5287 1
 3601  5290  5289 1
 3602  5290  5313 1
 3603  5291  5281 1
 3604  5292  5281 1
 3605  5293  5288 1
 3606  5294  5288 1
 3607  5294  5289 1
 3608  5304  5303 1
 3609  5305  5304 1
 3610  5306  5305 1
 3611  5307  5304 1
 3612  5308  5307 1
 3613  5309  5306 1
 3614  5309  5308 1
 3615  5310  5309 1
 3616  5312  5311 1
 3617  5312  5335 1
 3618  5313  5303 1
 3619  5314  5303 1
 3620  5315  5310 1
 3621  5316  5310 1
 3622  5316  5311 1
 3623  5326  5325 1
 3624  5327  5326 1
 3625  5328  5327 1
 3626  5329  5326 1
 3627  5330  5329 1
 3628  5331  5328 1
 3629  5331  5330 1
 3630  5332  5331 1
 3631  5334  5333 1
 3632  5334  5357 1
 3633  5335  5325 1
 3634  5336  5325 1
 3635  5337  5332 1
 3636  5338  5332 1
 3637  5338  5333 1
 3638  5348  5347 1
 3639  5349  5348 1
 3640  5350  5349 1
 3641  5351  5348 1
 3642  5352  5351 1
 3643  5353  5350 1
 3644  5353  5352 1
 3645  5354  5353 1
 3646  5356  5355 1
 3647  5356  5379 1
 3648  5357  5347 1
 3649  5358  5347 1
 3650  5359  5354 1
 3651  5360  5354 1
 3652  5360  5355 1
 3653  5370  5369 1
 3654  5371  5370 1
 3655  5372  5371 1
 3656  5373  5370 1
 3657  5374  5373 1
 3658  5375  5372 1
 3659  5375  5374 1
 3660  5376  5375 1
 3661  5378  5377 1
 3662  5378  5401 1
 3663  5379  5369 1
 3664  5380  5369 1
 3665  5381  5376 1
 3666  5382  5376 1
 3667  5382  5377 1
 3668  5392  5391 1
 3669  5393  5392 1
 3670  5394  5393 1
 3671  5395  5392 1
 3672  5396  5395 1
 3673  5397  5394 1
 3674  5397  5396 1
 3675  5398  5397 1
 3676  5400  5399 1
 3677  5400  5423 1
 3678  5401  5391 1
 3679  5402  5391 1
 3680  5403  5398 1
 3681  5404  5398 1
 3682  5404  5399 1
 3683  5414  5413 1
 3684  5415  5414 1
 3685  5416  5415 1
 3686  5417  5414 1
 3687  5418  5417 1
 3688  5419  5416 1
 3689  5419  5418 1
 3690  5420  5419 1
 3691  5422  5421 1
 3692  5422  5445 1
 3693  5423  5413 1
 3694  5424  5413 1
 3695  5425  5420 1
 3696  5426  5420 1
 3697  5426  5421 1
 3698  5436  5435 1
 3699  5437  5436 1
 3700  5438  5437 1
 3701  5439  5436 1
 3702  5440  5439 1
 3703  5441  5438 1
 3704  5441  5440 1
 3705  5442  5441 1
 3706  5444  5443 1
 3707  5444  5467 1
 3708  5445  5435 1
 3709  5446  5435 1
 3710  5447  5442 1
 3711  5448  5442 1
 3712  5448  5443 1
 3713  5458  5457 1
 3714  5459  5458 1
 3715  5460  5459 1
 3716  5461  5458 1
 3717  5462  5461 1
 3718  5463  5460 1
 3719  5463  5462 1
 3720  5464  5463 1
 3721  5466  5465 1
 3722  5466  5489 1
 3723  5467  5457 1
 3724  5468  5457 1
 3725  5469  5464 1
 3726  5470  5464 1
 3727  5470  5465 1
 3728  5480  5479 1
 3729  5481  5480 1
 3730  5482  5481 1
 3731  5483  5480 1
 3732  5484  5483 1
 3733  5485  5482 1
 3734  5485  5484 1
 3735  5486  5485 1
 3736  5488  5487 1
 3737  5488  5511 1
 3738  5489  5479 1
 3739  5490  5479 1
 3740  5491  5486 1
 3741  5492  5486 1
 3742  5492  5487 1
 3743  5502  5501 1
 3744  5503  5502 1
 3745  5504  5503 1
 3746  5505  5502 1
 3747  5506  5505 1
 3748  5507  5504 1
 3749  5507  5506 1
 3750  5508  5507 1
 3751  5510  5509 1
 3752  5510  5533 1
 3753  5511  5501 1
 3754  5512  5501 1
 3755  5513  5508 1
 3756  5514  5508 1
 3757  5514  5509 1
 3758  5524  5523 1
 3759  5525  5524 1
 3760  5526  5525 1
 3761  5527  5524 1
 3762  5528  5527 1
 3763  5529  5526 1
 3764  5529  5528 1
 3765  5530  5529 1
 3766  5532  5531 1
 3767  5532  5555 1
 3768  5533  5523 1
 3769  5534  5523 1
 3770  5535  5530 1
 3771  5536  5530 1
 3772  5536  5531 1
 3773  5546  5545 1
 3774  5547  5546 1
 3775  5548  5547 1
 3776  5549  5546 1
 3777  5550  5549 1
 3778  5551  5548 1
 3779  5551  5550 1
 3780  5552  5551 1
 3781  5554  5553 1
 3782  5554  5577 1
 3783  5555  5545 1
 3784  5556  5545 1
 3785  5557  5552 1
 3786  5558  5552 1
 3787  5558  5553 1
 3788  5568  5567 1
 3789  5569  5568 1
 3790  5570  5569 1
 3791  5571  5568 1
 3792  5572  5571 1
 3793  5573  5570 1
 3794  5573  5572 1
 3795  5574  5573 1
 3796  5576  5575 1
 3797  5576  5599 1
 3798  5577  5567 1
 3799  5578  5567 1
 3800  5579  5574 1
 3801  5580  5574 1
 3802  5580  5575 1
 3803  5590  5589 1
 3804  5591  5590 1
 3805  5592  5591 1
 3806  5593  5590 1
 3807  5594  5593 1
 3808  5595  5592 1
 3809  5595  5594 1
 3810  5596  5595 1
 3811  5598  5597 1
 3812  5598  5621 1
 3813  5599  5589 1
 3814  5600  5589 1
 3815  5601  5596 1
 3816  5602  5596 1
 3817  5602  5597 1
 3818  5612  5611 1
 3819  5613  5612 1
 3820  5614  5613 1
 3821  5615  5612 1
 3822  5616  5615 1
 3823  5617  5614 1
 3824  5617  5616 1
 3825  5618  5617 1
 3826  5620  5619 1
 3827  5620  5643 1
 3828  5621  5611 1
 3829  5622  5611 1
 3830  5623  5618 1
 3831  5624  5618 1
 3832  5624  5619 1
 3833  5634  5633 1
 3834  5635  5634 1
 3835  5636  5635 1
 3836  5637  5634 1
 3837  5638  5637 1
 3838  5639  5636 1
 3839  5639  5638 1
 3840  5640  5639 1
 3841  5642  5641 1
 3842  5642  5665 1
 3843  5643  5633 1
 3844  5644  5633 1
 3845  5645  5640 1
 3846  5646  5640 1
 3847  5646  5641 1
 3848  5656  5655 1
 3849  5657  5656 1
 3850  5658  5657 1
 3851  5659  5656 1
 3852  5660  5659 1
 3853  5661  5658 1
 3854  5661  5660 1
 3855  5662  5661 1
 3856  5664  5663 1
 3857  5664  5687 1
 3858  5665  5655 1
 3859  5666  5655 1
 3860  5667  5662 1
 3861  5668  5662 1
 3862  5668  5663 1
 3863  5678  5677 1
 3864  5679  5678 1
 3865  5680  5679 1
 3866  5681  5678 1
 3867  5682  5681 1
 3868  5683  5680 1
 3869  5683  5682 1
 3870  5684  5683 1
 3871  5686  5685 1
 3872  5686  5709 1
 3873  5687  5677 1
 3874  5688  5677 1
 3875  5689  5684 1
 3876  5690  5684 1
 3877  5690  5685 1
 3878  5700  5699 1
 3879  5701  5700 1
 3880  5702  5701 1
 3881  5703  5700 1
 3882  5704  5703 1
 3883  5705  5702 1
 3884  5705  5704 1
 3885  5706  5705 1
 3886  5708  5707 1
 3887  5708  5731 1
 3888  5709  5699 1
 3889  5710  5699 1
 3890  5711  5706 1
 3891  5712  5706 1
 3892  5712  5707 1
 3893  5722  5721 1
 3894  5723  5722 1
 3895  5724  5723 1
 3896  5725  5722 1
 3897  5726  5725 1
 3898  5727  5724 1
 3899  5727  5726 1
 3900  5728  5727 1
 3901  5730  5729 1
 3902  5730  5753 1
 3903  5731  5721 1
 3904  5732  5721 1
 3905  5733  5728 1
 3906  5734  5728 1
 3907  5734  5729 1
 3908  5744  5743 1
 3909  5745  5744 1
 3910  5746  5745 1
 3911  5747  5744 1
 3912  5748  5747 1
 3913  5749  5746 1
 3914  5749  5748 1
 3915  5750  5749 1
 3916  5752  5751 1
 3917  5752  5775 1
 3918  5753  5743 1
 3919  5754  5743 1
 3920  5755  5750 1
 3921  5756  5750 1
 3922  5756  5751 1
 3923  5766  5765 1
 3924  5767  5766 1
 3925  5768  5767 1
 3926  5769  5766 1
 3927  5770  5769 1
 3928  5771  5768 1
 3929  5771  5770 1
 3930  5772  5771 1
 3931  5774  5773 1
 3932  5774  5797 1
 3933  5775  5765 1
 3934  5776  5765 1
 3935  5777  5772 1
 3936  5778  5772 1
 3937  5778  5773 1
 3938  5788  5787 1
 3939  5789  5788 1
 3940  5790  5789 1
 3941  5791  5788 1
 3942  5792  5791 1
 3943  5793  5790 1
 3944  5793  5792 1
 3945  5794  5793 1
 3946  5796  5795 1
 3947  5796  5819 1
 3948  5797  5787 1
 3949  5798  5787 1
 3950  5799  5794 1
 3951  5800  5794 1
 3952  5800  5795 1
 3953  5810  5809 1
 3954  5811  5810 1
 3955  5812  5811 1
 3956  5813  5810 1
 3957  5814  5813 1
 3958  5815  5812 1
 3959  5815  5814 1
 3960  5816  5815 1
 3961  5818  5817 1
 3962  5818  5841 1
 3963  5819  5809 1
 3964  5820  5809 1
 3965  5821  5816 1
 3966  5822  5816 1
 3967  5822  5817 1
 3968  5832  5831 1
 3969  5833  5832 1
 3970  5834  5833 1
 3971  5835  5832 1
 3972  5836  5835 1
 3973  5837  5834 1
 3974  5837  5836 1
 3975  5838  5837 1
 3976  5840  5839 1
 3977  5840  5863 1
 3978  5841  5831 1
 3979  5842  5831 1
 3980  5843  5838 1
 3981  5844  5838 1
 3982  5844  5839 1
 3983  5854  5853 1
 3984  5855  5854 1
 3985  5856  5855 1
 3986  5857  5854 1
 3987  5858  5857 1
 3988  5859  5856 1
 3989  5859  5858 1
 3990  5860  5859 1
 3991  5862  5861 1
 3992  5862  5885 1
 3993  5863  5853 1
 3994  5864  5853 1
 3995  5865  5860 1
 3996  5866  5860 1
 3997  5866  5861 1
 3998  5876  5875 1
 3999  5877  5876 1
 4000  5878  5877 1
 4001  5879  5876 1
 4002  5880  5879 1
 4003  5881  5878 1
 4004  5881  5880 1
 4005  5882  5881 1
 4006  5884  5883 1
 4007  5884  5907 1
 4008  5885  5875 1
 4009  5886  5875 1
 4010  5887  5882 1
 4011  5888  5882 1
 4012  5888  5883 1
 4013  5898  5897 1
 4014  5899  5898 1
 4015  5900  5899 1
 4016  5901  5898 1
 4017  5902  5901 1
 4018  5903  5900 1
 4019  5903  5902 1
 4020  5904  5903 1
 4021  5906  5905 1
 4022  5906  5929 1
 4023  5907  5897 1
 4024  5908  5897 1
 4025  5909  5904 1
 4026  5910  5904 1
 4027  5910  5905 1
 4028  5920  5919 1
 4029  5921  5920 1
 4030  5922  5921 1
 4031  5923  5920 1
 4032  5924  5923 1
 4033  5925  5922 1
 4034  5925  5924 1
 4035  5926  5925 1
 4036  5928  5927 1
 4037  5929  5919 1
 4038  5930  5919 1
 4039  5931  5926 1
 4040  5932  5926 1
 4041  5932  5927 1
 4042  5942  5941 1
 4043  5943  5942 1
 4044  5944  5943 1
 4045  5945  5942 1
 4046  5946  5945 1
 4047  5947  5944 1
 4048  5947  5946 1
 4049  5948  5947 1
 4050  5950  5949 1
 4051  5950  5973 1
 4052  5951  5941 1
 4053  5952  5941 1
 4054  5953  5948 1
 4055  5954  5948 1
 4056  5954  5949 1
 4057  5964  5963 1
 4058  5965  5964 1
 4059  5966  5965 1
 4060  5967  5964 1
 4061  5968  5967 1
 4062  5969  5966 1
 4063  5969  5968 1
 4064  5970  5969 1
 4065  5972  5971 1
 4066  5972  5995 1
 4067  5973  5963 1
 4068  5974  5963 1
 4069  5975  5970 1
 4070  5976  5970 1
 4071  5976  5971 1
 4072  5986  5985 1
 4073  5987  5986 1
 4074  5988  5987 1
 4075  5989  5986 1
 4076  5990  5989 1
 4077  5991  5988 1
 4078  5991  5990 1
 4079  5992  5991 1
 4080  5994  5993 1
 4081  5994  6017 1
 4082  5995  5985 1
 4083  5996  5985 1
 4084  5997  5992 1
 4085  5998  5992 1
 4086  5998  5993 1
 4087  6008  6007 1
 4088  6009  6008 1
 4089  6010  6009 1
 4090  6011  6008 1
 4091  6012  6011 1
 4092  6013  6010 1
 4093  6013  6012 1
 4094  6014  6013 1
 4095  6016  6015 1
 4096  6016  6039 1
 4097  6017  6007 1
 4098  6018  6007 1
 4099  6019  6014 1
 4100  6020  6014 1
 4101  6020  6015 1
 4102  6030  6029 1
 4103  6031  6030 1
 4104  6032  6031 1
 4105  6033  6030 1
 4106  6034  6033 1
 4107  6035  6032 1
 4108  6035  6034 1
 4109  6036  6035 1
 4110  6038  6037 1
 4111  6038  6061 1
 4112  6039  6029 1
 4113  6040  6029 1
 4114  6041  6036 1
 4115  6042  6036 1
 4116  6042  6037 1
 4117  6052  6051 1
 4118  6053  6052 1
 4119  6054  6053 1
 4120  6055  6052 1
 4121  6056  6055 1
 4122  6057  6054 1
 4123  6057  6056 1
 4124  6058  6057 1
 4125  6060  6059 1
 4126  6060  6083 1
 4127  6061  6051 1
 4128  6062  6051 1
 4129  6063  6058 1
 4130  6064  6058 1
 4131  6064  6059 1
 4132  6074  6073 1
 4133  6075  6074 1
 4134  6076  6075 1
 4135  6077  6074 1
 4136  6078  6077 1
 4137  6079  6076 1
 4138  6079  6078 1
 4139  6080  6079 1
 4140  6082  6081 1
 4141  6082  6105 1
 4142  6083  6073 1
 4143  6084  6073 1
 4144  6085  6080 1
 4145  6086  6080 1
 4146  6086  6081 1
 4147  6096  6095 1
 4148  6097  6096 1
 4149  6098  6097 1
 4150  6099  6096 1
 4151  6100  6099 1
 4152  6101  6098 1
 4153  6101  6100 1
 4154  6102  6101 1
 4155  6104  6103 1
 4156  6104  6127 1
 4157  6105  6095 1
 4158  6106  6095 1
 4159  6107  6102 1
 4160  6108  6102 1
 4161  6108  6103 1
 4162  6118  6117 1
 4163  6119  6118 1
 4164  6120  6119 1
 4165  6121  6118 1
 4166  6122  6121 1
 4167  6123  6120 1
 4168  6123  6122 1
 4169  6124  6123 1
 4170  6126  6125 1
 4171  6126  6149 1
 4172  6127  6117 1
 4173  6128  6117 1
 4174  6129  6124 1
 4175  6130  6124 1
 4176  6130  6125 1
 4177  6140  6139 1
 4178  6141  6140 1
 4179  6142  6141 1
 4180  6143  6140 1
 4181  6144  6143 1
 4182  6145  6142 1
 4183  6145  6144 1
 4184  6146  6145 1
 4185  6148  6147 1
 4186  6148  6171 1
 4187  6149  6139 1
 4188  6150  6139 1
 4189  6151  6146 1
 4190  6152  6146 1
 4191  6152  6147 1
 4192  6162  6161 1
 4193  6163  6162 1
 4194  6164  6163 1
 4195  6165  6162 1
 4196  6166  6165 1
 4197  6167  6164 1
 4198  6167  6166 1
 4199  6168  6167 1
 4200  6170  6169 1
 4201  6170  6193 1
 4202  6171  6161 1
 4203  6172  6161 1
 4204  6173  6168 1
 4205  6174  6168 1
 4206  6174  6169 1
 4207  6184  6183 1
 4208  6185  6184 1
 4209  6186  6185 1
 4210  6187  6184 1
 4211  6188  6187 1
 4212  6189  6186 1
 4213  6189  6188 1
 4214  6190  6189 1
 4215  6192  6191 1
 4216  6192  6215 1
 4217  6193  6183 1
 4218  6194  6183 1
 4219  6195  6190 1
 4220  6196  6190 1
 4221  6196  6191 1
 4222  6206  6205 1
 4223  6207  6206 1
 4224  6208  6207 1
 4225  6209  6206 1
 4226  6210  6209 1
 4227  6211  6208 1
 4228  6211  6210 1
 4229  6212  6211 1
 4230  6214  6213 1
 4231  6214  6237 1
 4232  6215  6205 1
 4233  6216  6205 1
 4234  6217  6212 1
 4235  6218  6212 1
 4236  6218  6213 1
 4237  6228  6227 1
 4238  6229  6228 1
 4239  6230  6229 1
 4240  6231  6228 1
 4241  6232  6231 1
 4242  6233  6230 1
 4243  6233  6232 1
 4244  6234  6233 1
 4245  6236  6235 1
 4246  6236  6259 1
 4247  6237  6227 1
 4248  6238  6227 1
 4249  6239  6234 1
 4250  6240  6234 1
 4251  6240  6235 1
 4252  6250  6249 1
 4253  6251  6250 1
 4254  6252  6251 1
 4255  6253  6250 1
 4256  6254  6253 1
 4257  6255  6252 1
 4258  6255  6254 1
 4259  6256  6255 1
 4260  6258  6257 1
 4261  6258  6281 1
 4262  6259  6249 1
 4263  6260  6249 1
 4264  6261  6256 1
 4265  6262  6256 1
 4266  6262  6257 1
 4267  6272  6271 1
 4268  6273  6272 1
 4269  6274  6273 1
 4270  6275  6272 1
 4271  6276  6275 1
 4272  6277  6274 1
 4273  6277  6276 1
 4274  6278  6277 1
 4275  6280  6279 1
 4276  6280  6303 1
 4277  6281  6271 1
 4278  6282  6271 1
 4279  6283  6278 1
 4280  6284  6278 1
 4281  6284  6279 1
 4282  6294  6293 1
 4283  6295  6294 1
 4284  6296  6295 1
 4285  6297  6294 1
 4286  6298  6297 1
 4287  6299  6296 1
 4288  6299  6298 1
 4289  6300  6299 1
 4290  6302  6301 1
 4291  6302  6325 1
 4292  6303  6293 1
 4293  6304  6293 1
 4294  6305  6300 1
 4295  6306  6300 1
 4296  6306  6301 1
 4297  6316  6315 1
 4298  6317  6316 1
 4299  6318  6317 1
 4300  6319  6316 1
 4301  6320  6319 1
 4302  6321  6318 1
 4303  6321  6320 1
 4304  6322  6321 1
 4305  6324  6323 1
 4306  6324  6347 1
 4307  6325  6315 1
 4308  6326  6315 1
 4309  6327  6322 1
 4310  6328  6322 1
 4311  6328  6323 1
 4312  6338  6337 1
 4313  6339  6338 1
 4314  6340  6339 1
 4315  6341  6338 1
 4316  6342  6341 1
 4317  6343  6340 1
 4318  6343  6342 1
 4319  6344  6343 1
 4320  6346  6345 1
 4321  6346  6369 1
 4322  6347  6337 1
 4323  6348  6337 1
 4324  6349  6344 1
 4325  6350  6344 1
 4326  6350  6345 1
 4327  6360  6359 1
 4328  6361  6360 1
 4329  6362  6361 1
 4330  6363  6360 1
 4331  6364  6363 1
 4332  6365  6362 1
 4333  6365  6364 1
 4334  6366  6365 1
 4335  6368  6367 1
 4336  6368  6391 1
 4337  6369  6359 1
 4338  6370  6359 1
 4339  6371  6366 1
 4340  6372  6366 1
 4341  6372  6367 1
 4342  6382  6381 1
 4343  6383  6382 1
 4344  6384  6383 1
 4345  6385  6382 1
 4346  6386  6385 1
 4347  6387  6384 1
 4348  6387  6386 1
 4349  6388  6387 1
 4350  6390  6389 1
 4351  6390  6413 1
 4352  6391  6381 1
 4353  6392  6381 1
 4354  6393  6388 1
 4355  6394  6388 1
 4356  6394  6389 1
 4357  6404  6403 1
 4358  6405  6404 1
 4359  6406  6405 1
 4360  6407  6404 1
 4361  6408  6407 1
 4362  6409  6406 1
 4363  6409  6408 1
 4364  6410  6409 1
 4365  6412  6411 1
 4366  6412  6435 1
 4367  6413  6403 1
 4368  6414  6403 1
 4369  6415  6410 1
 4370  6416  6410 1
 4371  6416  6411 1
 4372  6426  6425 1
 4373  6427  6426 1
 4374  6428  6427 1
 4375  6429  6426 1
 4376  6430  6429 1
 4377  6431  6428 1
 4378  6431  6430 1
 4379  6432  6431 1
 4380  6434  6433 1
 4381  6434  6457 1
 4382  6435  6425 1
 4383  6436  6425 1
 4384  6437  6432 1
 4385  6438  6432 1
 4386  6438  6433 1
 4387  6448  6447 1
 4388  6449  6448 1
 4389  6450  6449 1
 4390  6451  6448 1
 4391  6452  6451 1
 4392  6453  6450 1
 4393  6453  6452 1
 4394  6454  6453 1
 4395  6456  6455 1
 4396  6456  6479 1
 4397  6457  6447 1
 4398  6458  6447 1
 4399  6459  6454 1
 4400  6460  6454 1
 4401  6460  6455 1
 4402  6470  6469 1
 4403  6471  6470 1
 4404  6472  6471 1
 4405  6473  6470 1
 4406  6474  6473 1
 4407  6475  6472 1
 4408  6475  6474 1
 4409  6476  6475 1
 4410  6478  6477 1
 4411  6478  6501 1
 4412  6479  6469 1
 4413  6480  6469 1
 4414  6481  6476 1
 4415  6482  6476 1
 4416  6482  6477 1
 4417  6492  6491 1
 4418  6493  6492 1
 4419  6494  6493 1
 4420  6495  6492 1
 4421  6496  6495 1
 4422  6497  6494 1
 4423  6497  6496 1
 4424  6498  6497 1
 4425  6500  6499 1
 4426  6500  6523 1
 4427  6501  6491 1
 4428  6502  6491 1
 4429  6503  6498 1
 4430  6504  6498 1
 4431  6504  6499 1
 4432  6514  6513 1
 4433  6515  6514 1
 4434  6516  6515 1
 4435  6517  6514 1
 4436  6518  6517 1
 4437  6519  6516 1
 4438  6519  6518 1
 4439  6520  6519 1
 4440  6522  6521 1
 4441  6522  6545 1
 4442  6523  6513 1
 4443  6524  6513 1
 4444  6525  6520 1
 4445  6526  6520 1
 4446  6526  6521 1
 4447  6536  6535 1
 4448  6537  6536 1
 4449  6538  6537 1
 4450  6539  6536 1
 4451  6540  6539 1
 4452  6541  6538 1
 4453  6541  6540 1
 4454  6542  6541 1
 4455  6544  6543 1
 4456  6544  6567 1
 4457  6545  6535 1
 4458  6546  6535 1
 4459  6547  6542 1
 4460  6548  6542 1
 4461  6548  6543 1
 4462  6558  6557 1
 4463  6559  6558 1
 4464  6560  6559 1
 4465  6561  6558 1
 4466  6562  6561 1
 4467  6563  6560 1
 4468  6563  6562 1
 4469  6564  6563 1
 4470  6566  6565 1
 4471  6566  6589 1
 4472  6567  6557 1
 4473  6568  6557 1
 4474  6569  6564 1
 4475  6570  6564 1
 4476  6570  6565 1
 4477  6580  6579 1
 4478  6581  6580 1
 4479  6582  6581 1
 4480  6583  6580 1
 4481  6584  6583 1
 4482  6585  6582 1
 4483  6585  6584 1
 4484  6586  6585 1
 4485  6588  6587 1
 4486  6589  6579 1
 4487  6590  6579 1
 4488  6591  6586 1
 4489  6592  6586 1
 4490  6592  6587 1
 4491  6602  6601 1
 4492  6603  6602 1
 4493  6604  6603 1
 4494  6605  6602 1
 4495  6606  6605 1
 4496  6607  6604 1
 4497  6607  6606 1
 4498  6608  6607 1
 4499  6610  6609 1
 4500  6610  6633 1
 4501  6611  6601 1
 4502  6612  6601 1
 4503  6613  6608 1
 4504  6614  6608 1
 4505  6614  6609 1
 4506  6624  6623 1
 4507  6625  6624 1
 4508  6626  6625 1
 4509  6627  6624 1
 4510  6628  6627 1
 4511  6629  6626 1
 4512  6629  6628 1
 4513  6630  6629 1
 4514  6632  6631 1
 4515  6632  6655 1
 4516  6633  6623 1
 4517  6634  6623 1
 4518  6635  6630 1
 4519  6636  6630 1
 4520  6636  6631 1
 4521  6646  6645 1
 4522  6647  6646 1
 4523  6648  6647 1
 4524  6649  6646 1
 4525  6650  6649 1
 4526  6651  6648 1
 4527  6651  6650 1
 4528  6652  6651 1
 4529  6654  6653 1
 4530  6654  6677 1
 4531  6655  6645 1
 4532  6656  6645 1
 4533  6657  6652 1
 4534  6658  6652 1
 4535  6658  6653 1
 4536  6668  6667 1
 4537  6669  6668 1
 4538  6670  6669 1
 4539  6671  6668 1
 4540  6672  6671 1
 4541  6673  6670 1
 4542  6673  6672 1
 4543  6674  6673 1
 4544  6676  6675 1
 4545  6676  6699 1
 4546  6677  6667 1
 4547  6678  6667 1
 4548  6679  6674 1
 4549  6680  6674 1
 4550  6680  6675 1
 4551  6690  6689 1
 4552  6691  6690 1
 4553  6692  6691 1
 4554  6693  6690 1
 4555  6694  6693 1
 4556  6695  6692 1
 4557  6695  6694 1
 4558  6696  6695 1
 4559  6698  6697 1
 4560  6698  6721 1
 4561  6699  6689 1
 4562  6700  6689 1
 4563  6701  6696 1
 4564  6702  6696 1
 4565  6702  6697 1
 4566  6712  6711 1
 4567  6713  6712 1
 4568  6714  6713 1
 4569  6715  6712 1
 4570  6716  6715 1
 4571  6717  6714 1
 4572  6717  6716 1
 4573  6718  6717 1
 4574  6720  6719 1
 4575  6720  6743 1
 4576  6721  6711 1
 4577  6722  6711 1
 4578  6723  6718 1
 4579  6724  6718 1
 4580  6724  6719 1
 4581  6734  6733 1
 4582  6735  6734 1
 4583  6736  6735 1
 4584  6737  6734 1
 4585  6738  6737 1
 4586  6739  6736 1
 4587  6739  6738 1
 4588  6740  6739 1
 4589  6742  6741 1
 4590  6742  6765 1
 4591  6743  6733 1
 4592  6744  6733 1
 4593  6745  6740 1
 4594  6746  6740 1
 4595  6746  6741 1
 4596  6756  6755 1
 4597  6757  6756 1
 4598  6758  6757 1
 4599  6759  6756 1
 4600  6760  6759 1
 4601  6761  6758 1
 4602  6761  6760 1
 4603  6762  6761 1
 4604  6764  6763 1
 4605  6764  6787 1
 4606  6765  6755 1
 4607  6766  6755 1
 4608  6767  6762 1
 4609  6768  6762 1
 4610  6768  6763 1
 4611  6778  6777 1
 4612  6779  6778 1
 4613  6780  6779 1
 4614  6781  6778 1
 4615  6782  6781 1
 4616  6783  6780 1
 4617  6783  6782 1
 4618  6784  6783 1
 4619  6786  6785 1
 4620  6786  6809 1
 4621  6787  6777 1
 4622  6788  6777 1
 4623  6789  6784 1
 4624  6790  6784 1
 4625  6790  6785 1
 4626  6800  6799 1
 4627  6801  6800 1
 4628  6802  6801 1
 4629  6803  6800 1
 4630  6804  6803 1
 4631  6805  6802 1
 4632  6805  6804 1
 4633  6806  6805 1
 4634  6808  6807 1
 4635  6808  6831 1
 4636  6809  6799 1
 4637  6810  6799 1
 4638  6811  6806 1
 4639  6812  6806 1
 4640  6812  6807 1
 4641  6822  6821 1
 4642  6823  6822 1
 4643  6824  6823 1
 4644  6825  6822 1
 4645  6826  6825 1
 4646  6827  6824 1
 4647  6827  6826 1
 4648  6828  6827 1
 4649  6830  6829 1
 4650  6830  6853 1
 4651  6831  6821 1
 4652  6832  6821 1
 4653  6833  6828 1
 4654  6834  6828 1
 4655  6834  6829 1
 4656  6844  6843 1
 4657  6845  6844 1
 4658  6846  6845 1
 4659  6847  6844 1
 4660  6848  6847 1
 4661  6849  6846 1
 4662  6849  6848 1
 4663  6850  6849 1
 4664  6852  6851 1
 4665  6852  6875 1
 4666  6853  6843 1
 4667  6854  6843 1
 4668  6855  6850 1
 4669  6856  6850 1
 4670  6856  6851 1
 4671  6866  6865 1
 4672  6867  6866 1
 4673  6868  6867 1
 4674  6869  6866 1
 4675  6870  6869 1
 4676  6871  6868 1
 4677  6871  6870 1
 4678  6872  6871 1
 4679  6874  6873 1
 4680  6874  6897 1
 4681  6875  6865 1
 4682  6876  6865 1
 4683  6877  6872 1
 4684  6878  6872 1
 4685  6878  6873 1
 4686  6888  6887 1
 4687  6889  6888 1
 4688  6890  6889 1
 4689  6891  6888 1
 4690  6892  6891 1
 4691  6893  6890 1
 4692  6893  6892 1
 4693  6894  6893 1
 4694  6896  6895 1
 4695  6896  6919 1
 4696  6897  6887 1
 4697  6898  6887 1
 4698  6899  6894 1
 4699  6900  6894 1
 4700  6900  6895 1
 4701  6910  6909 1
 4702  6911  6910 1
 4703  6912  6911 1
 4704  6913  6910 1
 4705  6914  6913 1
 4706  6915  6912 1
 4707  6915  6914 1
 4708  6916  6915 1
 4709  6918  6917 1
 4710  6918  6941 1
 4711  6919  6909 1
 4712  6920  6909 1
 4713  6921  6916 1
 4714  6922  6916 1
 4715  6922  6917 1
 4716  6932  6931 1
 4717  6933  6932 1
 4718  6934  6933 1
 4719  6935  6932 1
 4720  6936  6935 1
 4721  6937  6934 1
 4722  6937  6936 1
 4723  6938  6937 1
 4724  6940  6939 1
 4725  6940  6963 1
 4726  6941  6931 1
 4727  6942  6931 1
 4728  6943  6938 1
 4729  6944  6938 1
 4730  6944  6939 1
 4731  6954  6953 1
 4732  6955  6954 1
 4733  6956  6955 1
 4734  6957  6954 1
 4735  6958  6957 1
 4736  6959  6956 1
 4737  6959  6958 1
 4738  6960  6959 1
 4739  6962  6961 1
 4740  6962  6985 1
 4741  6963  6953 1
 4742  6964  6953 1
 4743  6965  6960 1
 4744  6966  6960 1
 4745  6966  6961 1
 4746  6976  6975 1
 4747  6977  6976 1
 4748  6978  6977 1
 4749  6979  6976 1
 4750  6980  6979 1
 4751  6981  6978 1
 4752  6981  6980 1
 4753  6982  6981 1
 4754  6984  6983 1
 4755  6984  7007 1
 4756  6985  6975 1
 4757  6986  6975 1
 4758  6987  6982 1
 4759  6988  6982 1
 4760  6988  6983 1
 4761  6998  6997 1
 4762  6999  6998 1
 4763  7000  6999 1
 4764  7001  6998 1
 4765  7002  7001 1
 4766  7003  7000 1
 4767  7003  7002 1
 4768  7004  7003 1
 4769  7006  7005 1
 4770  7006  7029 1
 4771  7007  6997 1
 4772  7008  6997 1
 4773  7009  7004 1
 4774  7010  7004 1
 4775  7010  7005 1
 4776  7020  7019 1
 4777  7021  7020 1
 4778  7022  7021 1
 4779  7023  7020 1
 4780  7024  7023 1
 4781  7025  7022 1
 4782  7025  7024 1
 4783  7026  7025 1
 4784  7028  7027 1
 4785  7028  7051 1
 4786  7029  7019 1
 4787  7030  7019 1
 4788  7031  7026 1
 4789  7032  7026 1
 4790  7032  7027 1
 4791  7042  7041 1
 4792  7043  7042 1
 4793  7044  7043 1
 4794  7045  7042 1
 4795  7046  7045 1
 4796  7047  7044 1
 4797  7047  7046 1
 4798  7048  7047 1
 4799  7050  7049 1
 4800  7050  7073 1
 4801  7051  7041 1
 4802  7052  7041 1
 4803  7053  7048 1
 4804  7054  7048 1
 4805  7054  7049 1
 4806  7064  7063 1
 4807  7065  7064 1
 4808  7066  7065 1
 4809  7067  7064 1
 4810  7068  7067 1
 4811  7069  7066 1
 4812  7069  7068 1
 4813  7070  7069 1
 4814  7072  7071 1
 4815  7072  7095 1
 4816  7073  7063 1
 4817  7074  7063 1
 4818  7075  7070 1
 4819  7076  7070 1
 4820  7076  7071 1
 4821  7086  7085 1
 4822  7087  7086 1
 4823  7088  7087 1
 4824  7089  7086 1
 4825  7090  7089 1
 4826  7091  7088 1
 4827  7091  7090 1
 4828  7092  7091 1
 4829  7094  7093 1
 4830  7094  7117 1
 4831  7095  7085 1
 4832  7096  7085 1
 4833  7097  7092 1
 4834  7098  7092 1
 4835  7098  7093 1
 4836  7108  7107 1
 4837  7109  7108 1
 4838  7110  7109 1
 4839  7111  7108 1
 4840  7112  7111 1
 4841  7113  7110 1
 4842  7113  7112 1
 4843  7114  7113 1
 4844  7116  7115 1
 4845  7116  7139 1
 4846  7117  7107 1
 4847  7118  7107 1
 4848  7119  7114 1
 4849  7120  7114 1
 4850  7120  7115 1
 4851  7130  7129 1
 4852  7131  7130 1
 4853  7132  7131 1
 4854  7133  7130 1
 4855  7134  7133 1
 4856  7135  7132 1
 4857  7135  7134 1
 4858  7136  7135 1
 4859  7138  7137 1
 4860  7138  7161 1
 4861  7139  7129 1
 4862  7140  7129 1
 4863  7141  7136 1
 4864  7142  7136 1
 4865  7142  7137 1
 4866  7152  7151 1
 4867  7153  7152 1
 4868  7154  7153 1
 4869  7155  7152 1
 4870  7156  7155 1
 4871  7157  7154 1
 4872  7157  7156 1
 4873  7158  7157 1
 4874  7160  7159 1
 4875  7160  7183 1
 4876  7161  7151 1
 4877  7162  7151 1
 4878  7163  7158 1
 4879  7164  7158 1
 4880  7164  7159 1
 4881  7174  7173 1
 4882  7175  7174 1
 4883  7176  7175 1
 4884  7177  7174 1
 4885  7178  7177 1
 4886  7179  7176 1
 4887  7179  7178 1
 4888  7180  7179 1
 4889  7182  7181 1
 4890  7182  7205 1
 4891  7183  7173 1
 4892  7184  7173 1
 4893  7185  7180 1
 4894  7186  7180 1
 4895  7186  7181 1
 4896  7196  7195 1
 4897  7197  7196 1
 4898  7198  7197 1
 4899  7199  7196 1
 4900  7200  7199 1
 4901  7201  7198 1
 4902  7201  7200 1
 4903  7202  7201 1
 4904  7204  7203 1
 4905  7204  7227 1
 4906  7205  7195 1
 4907  7206  7195 1
 4908  7207  7202 1
 4909  7208  7202 1
 4910  7208  7203 1
 4911  7218  7217 1
 4912  7219  7218 1
 4913  7220  7219 1
 4914  7221  7218 1
 4915  7222  7221 1
 4916  7223  7220 1
 4917  7223  7222 1
 4918  7224  7223 1
 4919  7226  7225 1
 4920  7226  7249 1
 4921  7227  7217 1
 4922  7228  7217 1
 4923  7229  7224 1
 4924  7230  7224 1
 4925  7230  7225 1
 4926  7240  7239 1
 4927  7241  7240 1
 4928  7242  7241 1
 4929  7243  7240 1
 4930  7244  7243 1
 4931  7245  7242 1
 4932  7245  7244 1
 4933  7246  7245 1
 4934  7248  7247 1
 4935  7249  7239 1
 4936  7250  7239 1
 4937  7251  7246 1
 4938  7252  7246 1
 4939  7252  7247 1
 4940  7262  7261 1
 4941  7263  7262 1
 4942  7264  7263 1
 4943  7265  7262 1
 4944  7266  7265 1
 4945  7267  7264 1
 4946  7267  7266 1
 4947  7268  7267 1
 4948  7270  7269 1
 4949  7270  7293 1
 4950  7271  7261 1
 4951  7272  7261 1
 4952  7273  7268 1
 4953  7274  7268 1
 4954  7274  7269 1
 4955  7284  7283 1
 4956  7285  7284 1
 4957  7286  7285 1
 4958  7287  7284 1
 4959  7288  7287 1
 4960  7289  7286 1
 4961  7289  7288 1
 4962  7290  7289 1
 4963  7292  7291 1
 4964  7292  7315 1
 4965  7293  7283 1
 4966  7294  7283 1
 4967  7295  7290 1
 4968  7296  7290 1
 4969  7296  7291 1
 4970  7306  7305 1
 4971  7307  7306 1
 4972  7308  7307 1
 4973  7309  7306 1
 4974  7310  7309 1
 4975  7311  7308 1
 4976  7311  7310 1
 4977  7312  7311 1
 4978  7314  7313 1
 4979  7314  7337 1
 4980  7315  7305 1
 4981  7316  7305 1
 4982  7317  7312 1
 4983  7318  7312 1
 4984  7318  7313 1
 4985  7328  7327 1
 4986  7329  7328 1
 4987  7330  7329 1
 4988  7331  7328 1
 4989  7332  7331 1
 4990  7333  7330 1
 4991  7333  7332 1
 4992  7334  7333 1
 4993  7336  7335 1
 4994  7336  7359 1
 4995  7337  7327 1
 4996  7338  7327 1
 4997  7339  7334 1
 4998  7340  7334 1
 4999  7340  7335 1
 5000  7350  7349 1
 5001  7351  7350 1
 5002  7352  7351 1
 5003  7353  7350 1
 5004  7354  7353 1
 5005  7355  7352 1
 5006  7355  7354 1
 5007  7356  7355 1
 5008  7358  7357 1
 5009  7358  7381 1
 5010  7359  7349 1
 5011  7360  7349 1
 5012  7361  7356 1
 5013  7362  7356 1
 5014  7362  7357 1
 5015  7372  7371 1
 5016  7373  7372 1
 5017  7374  7373 1
 5018  7375  7372 1
 5019  7376  7375 1
 5020  7377  7374 1
 5021  7377  7376 1
 5022  7378  7377 1
 5023  7380  7379 1
 5024  7380  7403 1
 5025  7381  7371 1
 5026  7382  7371 1
 5027  7383  7378 1
 5028  7384  7378 1
 5029  7384  7379 1
 5030  7394  7393 1
 5031  7395  7394 1
 5032  7396  7395 1
 5033  7397  7394 1
 5034  7398  7397 1
 5035  7399  7396 1
 5036  7399  7398 1
 5037  7400  7399 1
 5038  7402  7401 1
 5039  7402  7425 1
 5040  7403  7393 1
 5041  7404  7393 1
 5042  7405  7400 1
 5043  7406  7400 1
 5044  7406  7401 1
 5045  7416  7415 1
 5046  7417  7416 1
 5047  7418  7417 1
 5048  7419  7416 1
 5049  7420  7419 1
 5050  7421  7418 1
 5051  7421  7420 1
 5052  7422  7421 1
 5053  7424  7423 1
 5054  7424  7447 1
 5055  7425  7415 1
 5056  7426  7415 1
 5057  7427  7422 1
 5058  7428  7422 1
 5059  7428  7423 1
 5060  7438  7437 1
 5061  7439  7438 1
 5062  7440  7439 1
 5063  7441  7438 1
 5064  7442  7441 1
 5065  7443  7440 1
 5066  7443  7442 1
 5067  7444  7443 1
 5068  7446  7445 1
 5069  7446  7469 1
 5070  7447  7437 1
 5071  7448  7437 1
 5072  7449  7444 1
 5073  7450  7444 1
 5074  7450  7445 1
 5075  7460  7459 1
 5076  7461  7460 1
 5077  7462  7461 1
 5078  7463  7460 1
 5079  7464  7463 1
 5080  7465  7462 1
 5081  7465  7464 1
 5082  7466  7465 1
 5083  7468  7467 1
 5084  7468  7491 1
 5085  7469  7459 1
 5086  7470  7459 1
 5087  7471  7466 1
 5088  7472  7466 1
 5089  7472  7467 1
 5090  7482  7481 1
 5091  7483  7482 1
 5092  7484  7483 1
 5093  7485  7482 1
 5094  7486  7485 1
 5095  7487  7484 1
 5096  7487  7486 1
 5097  7488  7487 1
 5098  7490  7489 1
 5099  7490  7513 1
 5100  7491  7481 1
 5101  7492  7481 1
 5102  7493  7488 1
 5103  7494  7488 1
 5104  7494  7489 1
 5105  7504  7503 1
 5106  7505  7504 1
 5107  7506  7505 1
 5108  7507  7504 1
 5109  7508  7507 1
 5110  7509  7506 1
 5111  7509  7508 1
 5112  7510  7509 1
 5113  7512  7511 1
 5114  7512  7535 1
 5115  7513  7503 1
 5116  7514  7503 1
 5117  7515  7510 1
 5118  7516  7510 1
 5119  7516  7511 1
 5120  7526  7525 1
 5121  7527  7526 1
 5122  7528  7527 1
 5123  7529  7526 1
 5124  7530  7529 1
 5125  7531  7528 1
 5126  7531  7530 1
 5127  7532  7531 1
 5128  7534  7533 1
 5129  7534  7557 1
 5130  7535  7525 1
 5131  7536  7525 1
 5132  7537  7532 1
 5133  7538  7532 1
 5134  7538  7533 1
 5135  7548  7547 1
 5136  7549  7548 1
 5137  7550  7549 1
 5138  7551  7548 1
 5139  7552  7551 1
 5140  7553  7550 1
 5141  7553  7552 1
 5142  7554  7553 1
 5143  7556  7555 1
 5144  7556  7579 1
 5145  7557  7547 1
 5146  7558  7547 1
 5147  7559  7554 1
 5148  7560  7554 1
 5149  7560  7555 1
 5150  7570  7569 1
 5151  7571  7570 1
 5152  7572  7571 1
 5153  7573  7570 1
 5154  7574  7573 1
 5155  7575  7572 1
 5156  7575  7574 1
 5157  7576  7575 1
 5158  7578  7577 1
 5159  7578  7601 1
 5160  7579  7569 1
 5161  7580  7569 1
 5162  7581  7576 1
 5163  7582  7576 1
 5164  7582  7577 1
 5165  7592  7591 1
 5166  7593  7592 1
 5167  7594  7593 1
 5168  7595  7592 1
 5169  7596  7595 1
 5170  7597  7594 1
 5171  7597  7596 1
 5172  7598  7597 1
 5173  7600  7599 1
 5174  7600  7623 1
 5175  7601  7591 1
 5176  7602  7591 1
 5177  7603  7598 1
 5178  7604  7598 1
 5179  7604  7599 1
 5180  7614  7613 1
 5181  7615  7614 1
 5182  7616  7615 1
 5183  7617  7614 1
 5184  7618  7617 1
 5185  7619  7616 1
 5186  7619  7618 1
 5187  7620  7619 1
 5188  7622  7621 1
 5189  7622  7645 1
 5190  7623  7613 1
 5191  7624  7613 1
 5192  7625  7620 1
 5193  7626  7620 1
 5194  7626  7621 1
 5195  7636  7635 1
 5196  7637  7636 1
 5197  7638  7637 1
 5198  7639  7636 1
 5199  7640  7639 1
 5200  7641  7638 1
 5201  7641  7640 1
 5202  7642  7641 1
 5203  7644  7643 1
 5204  7644  7667 1
 5205  7645  7635 1
 5206  7646  7635 1
 5207  7647  7642 1
 5208  7648  7642 1
 5209  7648  7643 1
 5210  7658  7657 1
 5211  7659  7658 1
 5212  7660  7659 1
 5213  7661  7658 1
 5214  7662  7661 1
 5215  7663  7660 1
 5216  7663  7662 1
 5217  7664  7663 1
 5218  7666  7665 1
 5219  7666  7689 1
 5220  7667  7657 1
 5221  7668  7657 1
 5222  7669  7664 1
 5223  7670  7664 1
 5224  7670  7665 1
 5225  7680  7679 1
 5226  7681  7680 1
 5227  7682  7681 1
 5228  7683  7680 1
 5229  7684  7683 1
 5230  7685  7682 1
 5231  7685  7684 1
 5232  7686  7685 1
 5233  7688  7687 1
 5234  7688  7711 1
 5235  7689  7679 1
 5236  7690  7679 1
 5237  7691  7686 1
 5238  7692  7686 1
 5239  7692  7687 1
 5240  7702  7701 1
 5241  7703  7702 1
 5242  7704  7703 1
 5243  7705  7702 1
 5244  7706  7705 1
 5245  7707  7704 1
 5246  7707  7706 1
 5247  7708  7707 1
 5248  7710  7709 1
 5249  7710  7733 1
 5250  7711  7701 1
 5251  7712  7701 1
 5252  7713  7708 1
 5253  7714  7708 1
 5254  7714  7709 1
 5255  7724  7723 1
 5256  7725  7724 1
 5257  7726  7725 1
 5258  7727  7724 1
 5259  7728  7727 1
 5260  7729  7726 1
 5261  7729  7728 1
 5262  7730  7729 1
 5263  7732  7731 1
 5264  7732  7755 1
 5265  7733  7723 1
 5266  7734  7723 1
 5267  7735  7730 1
 5268  7736  7730 1
 5269  7736  7731 1
 5270  7746  7745 1
 5271  7747  7746 1
 5272  7748  7747 1
 5273  7749  7746 1
 5274  7750  7749 1
 5275  7751  7748 1
 5276  7751  7750 1
 5277  7752  7751 1
 5278  7754  7753 1
 5279  7754  7777 1
 5280  7755  7745 1
 5281  7756  7745 1
 5282  7757  7752 1
 5283  7758  7752 1
 5284  7758  7753 1
 5285  7768  7767 1
 5286  7769  7768 1
 5287  7770  7769 1
 5288  7771  7768 1
 5289  7772  7771 1
 5290  7773  7770 1
 5291  7773  7772 1
 5292  7774  7773 1
 5293  7776  7775 1
 5294  7776  7799 1
 5295  7777  7767 1
 5296  7778  7767 1
 5297  7779  7774 1
 5298  7780  7774 1
 5299  7780  7775 1
 5300  7790  7789 1
 5301  7791  7790 1
 5302  7792  7791 1
 5303  7793  7790 1
 5304  7794  7793 1
 5305  7795  7792 1
 5306  7795  7794 1
 5307  7796  7795 1
 5308  7798  7797 1
 5309  7798  7821 1
 5310  7799  7789 1
 5311  7800  7789 1
 5312  7801  7796 1
 5313  7802  7796 1
 5314  7802  7797 1
 5315  7812  7811 1
 5316  7813  7812 1
 5317  7814  7813 1
 5318  7815  7812 1
 5319  7816  7815 1
 5320  7817  7814 1
 5321  7817  7816 1
 5322  7818  7817 1
 5323  7820  7819 1
 5324  7820  7843 1
 5325  7821  7811 1
 5326  7822  7811 1
 5327  7823  7818 1
 5328  7824  7818 1
 5329  7824  7819 1
 5330  7834  7833 1
 5331  7835  7834 1
 5332  7836  7835 1
 5333  7837  7834 1
 5334  7838  7837 1
 5335  7839  7836 1
 5336  7839  7838 1
 5337  7840  7839 1
 5338  7842  7841 1
 5339  7842  7865 1
 5340  7843  7833 1
 5341  7844  7833 1
 5342  7845  7840 1
 5343  7846  7840 1
 5344  7846  7841 1
 5345  7856  7855 1
 5346  7857  7856 1
 5347  7858  7857 1
 5348  7859  7856 1
 5349  7860  7859 1
 5350  7861  7858 1
 5351  7861  7860 1
 5352  7862  7861 1
 5353  7864  7863 1
 5354  7864  7887 1
 5355  7865  7855 1
 5356  7866  7855 1
 5357  7867  7862 1
 5358  7868  7862 1
 5359  7868  7863 1
 5360  7878  7877 1
 5361  7879  7878 1
 5362  7880  7879 1
 5363  7881  7878 1
 5364  7882  7881 1
 5365  7883  7880 1
 5366  7883  7882 1
 5367  7884  7883 1
 5368  7886  7885 1
 5369  7886  7909 1
 5370  7887  7877 1
 5371  7888  7877 1
 5372  7889  7884 1
 5373  7890  7884 1
 5374  7890  7885 1
 5375  7900  7899 1
 5376  7901  7900 1
 5377  7902  7901 1
 5378  7903  7900 1
 5379  7904  7903 1
 5380  7905  7902 1
 5381  7905  7904 1
 5382  7906  7905 1
 5383  7908  7907 1
 5384  7909  7899 1
 5385  7910  7899 1
 5386  7911  7906 1
 5387  7912  7906 1
 5388  7912  7907 1
 5389  7922  7921 1
 5390  7923  7922 1
 5391  7924  7923 1
 5392  7925  7922 1
 5393  7926  7925 1
 5394  7927  7924 1
 5395  7927  7926 1
 5396  7928  7927 1
 5397  7930  7929 1
 5398  7930  7953 1
 5399  7931  7921 1
 5400  7932  7921 1
 5401  7933  7928 1
 5402  7934  7928 1
 5403  7934  7929 1
 5404  7944  7943 1
 5405  7945  7944 1
 5406  7946  7945 1
 5407  7947  7944 1
 5408  7948  7947 1
 5409  7949  7946 1
 5410  7949  7948 1
 5411  7950  7949 1
 5412  7952  7951 1
 5413  7952  7975 1
 5414  7953  7943 1
 5415  7954  7943 1
 5416  7955  7950 1
 5417  7956  7950 1
 5418  7956  7951 1
 5419  7966  7965 1
 5420  7967  7966 1
 5421  7968  7967 1
 5422  7969  7966 1
 5423  7970  7969 1
 5424  7971  7968 1
 5425  7971  7970 1
 5426  7972  7971 1
 5427  7974  7973 1
 5428  7974  7997 1
 5429  7975  7965 1
 5430  7976  7965 1
 5431  7977  7972 1
 5432  7978  7972 1
 5433  7978  7973 1
 5434  7988  7987 1
 5435  7989  7988 1
 5436  7990  7989 1
 5437  7991  7988 1
 5438  7992  7991 1
 5439  7993  7990 1
 5440  7993  7992 1
 5441  7994  7993 1
 5442  7996  7995 1
 5443  7996  8019 1
 5444  7997  7987 1
 5445  7998  7987 1
 5446  7999  7994 1
 5447  8000  7994 1
 5448  8000  7995 1
 5449  8010  8009 1
 5450  8011  8010 1
 5451  8012  8011 1
 5452  8013  8010 1
 5453  8014  8013 1
 5454  8015  8012 1
 5455  8015  8014 1
 5456  8016  8015 1
 5457  8018  8017 1
 5458  8018  8041 1
 5459  8019  8009 1
 5460  8020  8009 1
 5461  8021  8016 1
 5462  8022  8016 1
 5463  8022  8017 1
 5464  8032  8031 1
 5465  8033  8032 1
 5466  8034  8033 1
 5467  8035  8032 1
 5468  8036  8035 1
 5469  8037  8034 1
 5470  8037  8036 1
 5471  8038  8037 1
 5472  8040  8039 1
 5473  8040  8063 1
 5474  8041  8031 1
 5475  8042  8031 1
 5476  8043  8038 1
 5477  8044  8038 1
 5478  8044  8039 1
 5479  8054  8053 1
 5480  8055  8054 1
 5481  8056  8055 1
 5482  8057  8054 1
 5483  8058  8057 1
 5484  8059  8056 1
 5485  8059  8058 1
 5486  8060  8059 1
 5487  8062  8061 1
 5488  8062  8085 1
 5489  8063  8053 1
 5490  8064  8053 1
 5491  8065  8060 1
 5492  8066  8060 1
 5493  8066  8061 1
 5494  8076  8075 1
 5495  8077  8076 1
 5496  8078  8077 1
 5497  8079  8076 1
 5498  8080  8079 1
 5499  8081  8078 1
 5500  8081  8080 1
 5501  8082  8081 1
 5502  8084  8083 1
 5503  8084  8107 1
 5504  8085  8075 1
 5505  8086  8075 1
 5506  8087  8082 1
 5507  8088  8082 1
 5508  8088  8083 1
 5509  8098  8097 1
 5510  8099  8098 1
 5511  8100  8099 1
 5512  8101  8098 1
 5513  8102  8101 1
 5514  8103  8100 1
 5515  8103  8102 1
 5516  8104  8103 1
 5517  8106  8105 1
 5518  8106  8129 1
 5519  8107  8097 1
 5520  8108  8097 1
 5521  8109  8104 1
 5522  8110  8104 1
 5523  8110  8105 1
 5524  8120  8119 1
 5525  8121  8120 1
 5526  8122  8121 1
 5527  8123  8120 1
 5528  8124  8123 1
 5529  8125  8122 1
 5530  8125  8124 1
 5531  8126  8125 1
 5532  8128  8127 1
 5533  8128  8151 1
 5534  8129  8119 1
 5535  8130  8119 1
 5536  8131  8126 1
 5537  8132  8126 1
 5538  8132  8127 1
 5539  8142  8141 1
 5540  8143  8142 1
 5541  8144  8143 1
 5542  8145  8142 1
 5543  8146  8145 1
 5544  8147  8144 1
 5545  8147  8146 1
 5546  8148  8147 1
 5547  8150  8149 1
 5548  8150  8173 1
 5549  8151  8141 1
 5550  8152  8141 1
 5551  8153  8148 1
 5552  8154  8148 1
 5553  8154  8149 1
 5554  8164  8163 1
 5555  8165  8164 1
 5556  8166  8165 1
 5557  8167  8164 1
 5558  8168  8167 1
 5559  8169  8166 1
 5560  8169  8168 1
 5561  8170  8169 1
 5562  8172  8171 1
 5563  8172  8195 1
 5564  8173  8163 1
 5565  8174  8163 1
 5566  8175  8170 1
 5567  8176  8170 1
 5568  8176  8171 1
 5569  8186  8185 1
 5570  8187  8186 1
 5571  8188  8187 1
 5572  8189  8186 1
 5573  8190  8189 1
 5574  8191  8188 1
 5575  8191  8190 1
 5576  8192  8191 1
 5577  8194  8193 1
 5578  8194  8217 1
 5579  8195  8185 1
 5580  8196  8185 1
 5581  8197  8192 1
 5582  8198  8192 1
 5583  8198  8193 1
 5584  8208  8207 1
 5585  8209  8208 1
 5586  8210  8209 1
 5587  8211  8208 1
 5588  8212  8211 1
 5589  8213  8210 1
 5590  8213  8212 1
 5591  8214  8213 1
 5592  8216  8215 1
 5593  8216  8239 1
 5594  8217  8207 1
 5595  8218  8207 1
 5596  8219  8214 1
 5597  8220  8214 1
 5598  8220  8215 1
 5599  8230  8229 1
 5600  8231  8230 1
 5601  8232  8231 1
 5602  8233  8230 1
 5603  8234  8233 1
 5604  8235  8232 1
 5605  8235  8234 1
 5606  8236  8235 1
 5607  8238  8237 1
 5608  8238  8261 1
 5609  8239  8229 1
 5610  8240  8229 1
 5611  8241  8236 1
 5612  8242  8236 1
 5613  8242  8237 1
 5614  8252  8251 1
 5615  8253  8252 1
 5616  8254  8253 1
 5617  8255  8252 1
 5618  8256  8255 1
 5619  8257  8254 1
 5620  8257  8256 1
 5621  8258  8257 1
 5622  8260  8259 1
 5623  8260  8283 1
 5624  8261  8251 1
 5625  8262  8251 1
 5626  8263  8258 1
 5627  8264  8258 1
 5628  8264  8259 1
 5629  8274  8273 1
 5630  8275  8274 1
 5631  8276  8275 1
 5632  8277  8274 1
 5633  8278  8277 1
 5634  8279  8276 1
 5635  8279  8278 1
 5636  8280  8279 1
 5637  8282  8281 1
 5638  8282  8305 1
 5639  8283  8273 1
 5640  8284  8273 1
 5641  8285  8280 1
 5642  8286  8280 1
 5643  8286  8281 1
 5644  8296  8295 1
 5645  8297  8296 1
 5646  8298  8297 1
 5647  8299  8296 1
 5648  8300  8299 1
 5649  8301  8298 1
 5650  8301  8300 1
 5651  8302  8301 1
 5652  8304  8303 1
 5653  8304  8327 1
 5654  8305  8295 1
 5655  8306  8295 1
 5656  8307  8302 1
 5657  8308  8302 1
 5658  8308  8303 1
 5659  8318  8317 1
 5660  8319  8318 1
 5661  8320  8319 1
 5662  8321  8318 1
 5663  8322  8321 1
 5664  8323  8320 1
 5665  8323  8322 1
 5666  8324  8323 1
 5667  8326  8325 1
 5668  8326  8349 1
 5669  8327  8317 1
 5670  8328  8317 1
 5671  8329  8324 1
 5672  8330  8324 1
 5673  8330  8325 1
 5674  8340  8339 1
 5675  8341  8340 1
 5676  8342  8341 1
 5677  8343  8340 1
 5678  8344  8343 1
 5679  8345  8342 1
 5680  8345  8344 1
 5681  8346  8345 1
 5682  8348  8347 1
 5683  8348  8371 1
 5684  8349  8339 1
 5685  8350  8339 1
 5686  8351  8346 1
 5687  8352  8346 1
 5688  8352  8347 1
 5689  8362  8361 1
 5690  8363  8362 1
 5691  8364  8363 1
 5692  8365  8362 1
 5693  8366  8365 1
 5694  8367  8364 1
 5695  8367  8366 1
 5696  8368  8367 1
 5697  8370  8369 1
 5698  8370  8393 1
 5699  8371  8361 1
 5700  8372  8361 1
 5701  8373  8368 1
 5702  8374  8368 1
 5703  8374  8369 1
 5704  8384  8383 1
 5705  8385  8384 1
 5706  8386  8385 1
 5707  8387  8384 1
 5708  8388  8387 1
 5709  8389  8386 1
 5710  8389  8388 1
 5711  8390  8389 1
 5712  8392  8391 1
 5713  8392  8415 1
 5714  8393  8383 1
 5715  8394  8383 1
 5716  8395  8390 1
 5717  8396  8390 1
 5718  8396  8391 1
 5719  8406  8405 1
 5720  8407  8406 1
 5721  8408  8407 1
 5722  8409  8406 1
 5723  8410  8409 1
 5724  8411  8408 1
 5725  8411  8410 1
 5726  8412  8411 1
 5727  8414  8413 1
 5728  8414  8437 1
 5729  8415  8405 1
 5730  8416  8405 1
 5731  8417  8412 1
 5732  8418  8412 1
 5733  8418  8413 1
 5734  8428  8427 1
 5735  8429  8428 1
 5736  8430  8429 1
 5737  8431  8428 1
 5738  8432  8431 1
 5739  8433  8430 1
 5740  8433  8432 1
 5741  8434  8433 1
 5742  8436  8435 1
 5743  8436  8459 1
 5744  8437  8427 1
 5745  8438  8427 1
 5746  8439  8434 1
 5747  8440  8434 1
 5748  8440  8435 1
 5749  8450  8449 1
 5750  8451  8450 1
 5751  8452  8451 1
 5752  8453  8450 1
 5753  8454  8453 1
 5754  8455  8452 1
 5755  8455  8454 1
 5756  8456  8455 1
 5757  8458  8457 1
 5758  8458  8481 1
 5759  8459  8449 1
 5760  8460  8449 1
 5761  8461  8456 1
 5762  8462  8456 1
 5763  8462  8457 1
 5764  8472  8471 1
 5765  8473  8472 1
 5766  8474  8473 1
 5767  8475  8472 1
 5768  8476  8475 1
 5769  8477  8474 1
 5770  8477  8476 1
 5771  8478  8477 1
 5772  8480  8479 1
 5773  8480  8503 1
 5774  8481  8471 1
 5775  8482  8471 1
 5776  8483  8478 1
 5777  8484  8478 1
 5778  8484  8479 1
 5779  8494  8493 1
 5780  8495  8494 1
 5781  8496  8495 1
 5782  8497  8494 1
 5783  8498  8497 1
 5784  8499  8496 1
 5785  8499  8498 1
 5786  8500  8499 1
 5787  8502  8501 1
 5788  8502  8525 1
 5789  8503  8493 1
 5790  8504  8493 1
 5791  8505  8500 1
 5792  8506  8500 1
 5793  8506  8501 1
 5794  8516  8515 1
 5795  8517  8516 1
 5796  8518  8517 1
 5797  8519  8516 1
 5798  8520  8519 1
 5799  8521  8518 1
 5800  8521  8520 1
 5801  8522  8521 1
 5802  8524  8523 1
 5803  8524  8547 1
 5804  8525  8515 1
 5805  8526  8515 1
 5806  8527  8522 1
 5807  8528  8522 1
 5808  8528  8523 1
 5809  8538  8537 1
 5810  8539  8538 1
 5811  8540  8539 1
 5812  8541  8538 1
 5813  8542  8541 1
 5814  8543  8540 1
 5815  8543  8542 1
 5816  8544  8543 1
 5817  8546  8545 1
 5818  8546  8569 1
 5819  8547  8537 1
 5820  8548  8537 1
 5821  8549  8544 1
 5822  8550  8544 1
 5823  8550  8545 1
 5824  8560  8559 1
 5825  8561  8560 1
 5826  8562  8561 1
 5827  8563  8560 1
 5828  8564  8563 1
 5829  8565  8562 1
 5830  8565  8564 1
 5831  8566  8565 1
 5832  8568  8567 1
 5833  8569  8559 1
 5834  8570  8559 1
 5835  8571  8566 1
 5836  8572  8566 1
 5837  8572  8567 1
 5838  8582  8581 1
 5839  8583  8582 1
 5840  8584  8583 1
 5841  8585  8582 1
 5842  8586  8585 1
 5843  8587  8584 1
 5844  8587  8586 1
 5845  8588  8587 1
 5846  8590  8589 1
 5847  8590  8613 1
 5848  8591  8581 1
 5849  8592  8581 1
 5850  8593  8588 1
 5851  8594  8588 1
 5852  8594  8589 1
 5853  8604  8603 1
 5854  8605  8604 1
 5855  8606  8605 1
 5856  8607  8604 1
 5857  8608  8607 1
 5858  8609  8606 1
 5859  8609  8608 1
 5860  8610  8609 1
 5861  8612  8611 1
 5862  8612  8635 1
 5863  8613  8603 1
 5864  8614  8603 1
 5865  8615  8610 1
 5866  8616  8610 1
 5867  8616  8611 1
 5868  8626  8625 1
 5869  8627  8626 1
 5870  8628  8627 1
 5871  8629  8626 1
 5872  8630  8629 1
 5873  8631  8628 1
 5874  8631  8630 1
 5875  8632  8631 1
 5876  8634  8633 1
 5877  8634  8657 1
 5878  8635  8625 1
 5879  8636  8625 1
 5880  8637  8632 1
 5881  8638  8632 1
 5882  8638  8633 1
 5883  8648  8647 1
 5884  8649  8648 1
 5885  8650  8649 1
 5886  8651  8648 1
 5887  8652  8651 1
 5888  8653  8650 1
 5889  8653  8652 1
 5890  8654  8653 1
 5891  8656  8655 1
 5892  8656  8679 1
 5893  8657  8647 1
 5894  8658  8647 1
 5895  8659  8654 1
 5896  8660  8654 1
 5897  8660  8655 1
 5898  8670  8669 1
 5899  8671  8670 1
 5900  8672  8671 1
 5901  8673  8670 1
 5902  8674  8673 1
 5903  8675  8672 1
 5904  8675  8674 1
 5905  8676  8675 1
 5906  8678  8677 1
 5907  8678  8701 1
 5908  8679  8669 1
 5909  8680  8669 1
 5910  8681  8676 1
 5911  8682  8676 1
 5912  8682  8677 1
 5913  8692  8691 1
 5914  8693  8692 1
 5915  8694  8693 1
 5916  8695  8692 1
 5917  8696  8695 1
 5918  8697  8694 1
 5919  8697  8696 1
 5920  8698  8697 1
 5921  8700  8699 1
 5922  8700  8723 1
 5923  8701  8691 1
 5924  8702  8691 1
 5925  8703  8698 1
 5926  8704  8698 1
 5927  8704  8699 1
 5928  8714  8713 1
 5929  8715  8714 1
 5930  8716  8715 1
 5931  8717  8714 1
 5932  8718  8717 1
 5933  8719  8716 1
 5934  8719  8718 1
 5935  8720  8719 1
 5936  8722  8721 1
 5937  8722  8745 1
 5938  8723  8713 1
 5939  8724  8713 1
 5940  8725  8720 1
 5941  8726  8720 1
 5942  8726  8721 1
 5943  8736  8735 1
 5944  8737  8736 1
 5945  8738  8737 1
 5946  8739  8736 1
 5947  8740  8739 1
 5948  8741  8738 1
 5949  8741  8740 1
 5950  8742  8741 1
 5951  8744  8743 1
 5952  8744  8767 1
 5953  8745  8735 1
 5954  8746  8735 1
 5955  8747  8742 1
 5956  8748  8742 1
 5957  8748  8743 1
 5958  8758  8757 1
 5959  8759  8758 1
 5960  8760  8759 1
 5961  8761  8758 1
 5962  8762  8761 1
 5963  8763  8760 1
 5964  8763  8762 1
 5965  8764  8763 1
 5966  8766  8765 1
 5967  8766  8789 1
 5968  8767  8757 1
 5969  8768  8757 1
 5970  8769  8764 1
 5971  8770  8764 1
 5972  8770  8765 1
 5973  8780  8779 1
 5974  8781  8780 1
 5975  8782  8781 1
 5976  8783  8780 1
 5977  8784  8783 1
 5978  8785  8782 1
 5979  8785  8784 1
 5980  8786  8785 1
 5981  8788  8787 1
 5982  8788  8811 1
 5983  8789  8779 1
 5984  8790  8779 1
 5985  8791  8786 1
 5986  8792  8786 1
 5987  8792  8787 1
 5988  8802  8801 1
 5989  8803  8802 1
 5990  8804  8803 1
 5991  8805  8802 1
 5992  8806  8805 1
 5993  8807  8804 1
 5994  8807  8806 1
 5995  8808  8807 1
 5996  8810  8809 1
 5997  8810  8833 1
 5998  8811  8801 1
 5999  8812  8801 1
 6000  8813  8808 1
 6001  8814  8808 1
 6002  8814  8809 1
 6003  8824  8823 1
 6004  8825  8824 1
 6005  8826  8825 1
 6006  8827  8824 1
 6007  8828  8827 1
 6008  8829  8826 1
 6009  8829  8828 1
 6010  8830  8829 1
 6011  8832  8831 1
 6012  8832  8855 1
 6013  8833  8823 1
 6014  8834  8823 1
 6015  8835  8830 1
 6016  8836  8830 1
 6017  8836  8831 1
 6018  8846  8845 1
 6019  8847  8846 1
 6020  8848  8847 1
 6021  8849  8846 1
 6022  8850  8849 1
 6023  8851  8848 1
 6024  8851  8850 1
 6025  8852  8851 1
 6026  8854  8853 1
 6027  8854  8877 1
 6028  8855  8845 1
 6029  8856  8845 1
 6030  8857  8852 1
 6031  8858  8852 1
 6032  8858  8853 1
 6033  8868  8867 1
 6034  8869  8868 1
 6035  8870  8869 1
 6036  8871  8868 1
 6037  8872  8871 1
 6038  8873  8870 1
 6039  8873  8872 1
 6040  8874  8873 1
 6041  8876  8875 1
 6042  8876  8899 1
 6043  8877  8867 1
 6044  8878  8867 1
 6045  8879  8874 1
 6046  8880  8874 1
 6047  8880  8875 1
 6048  8890  8889 1
 6049  8891  8890 1
 6050  8892  8891 1
 6051  8893  8890 1
 6052  8894  8893 1
 6053  8895  8892 1
 6054  8895  8894 1
 6055  8896  8895 1
 6056  8898  8897 1
 6057  8898  8921 1
 6058  8899  8889 1
 6059  8900  8889 1
 6060  8901  8896 1
 6061  8902  8896 1
 6062  8902  8897 1
 6063  8912  8911 1
 6064  8913  8912 1
 6065  8914  8913 1
 6066  8915  8912 1
 6067  8916  8915 1
 6068  8917  8914 1
 6069  8917  8916 1
 6070  8918  8917 1
 6071  8920  8919 1
 6072  8920  8943 1
 6073  8921  8911 1
 6074  8922  8911 1
 6075  8923  8918 1
 6076  8924  8918 1
 6077  8924  8919 1
 6078  8934  8933 1
 6079  8935  8934 1
 6080  8936  8935 1
 6081  8937  8934 1
 6082  8938  8937 1
 6083  8939  8936 1
 6084  8939  8938 1
 6085  8940  8939 1
 6086  8942  8941 1
 6087  8942  8965 1
 6088  8943  8933 1
 6089  8944  8933 1
 6090  8945  8940 1
 6091  8946  8940 1
 6092  8946  8941 1
 6093  8956  8955 1
 6094  8957  8956 1
 6095  8958  8957 1
 6096  8959  8956 1
 6097  8960  8959 1
 6098  8961  8958 1
 6099  8961  8960 1
 6100  8962  8961 1
 6101  8964  8963 1
 6102  8964  8987 1
 6103  8965  8955 1
 6104  8966  8955 1
 6105  8967  8962 1
 6106  8968  8962 1
 6107  8968  8963 1
 6108  8978  8977 1
 6109  8979  8978 1
 6110  8980  8979 1
 6111  8981  8978 1
 6112  8982  8981 1
 6113  8983  8980 1
 6114  8983  8982 1
 6115  8984  8983 1
 6116  8986  8985 1
 6117  8986  9009 1
 6118  8987  8977 1
 6119  8988  8977 1
 6120  8989  8984 1
 6121  8990  8984 1
 6122  8990  8985 1
 6123  9000  8999 1
 6124  9001  9000 1
 6125  9002  9001 1
 6126  9003  9000 1
 6127  9004  9003 1
 6128  9005  9002 1
 6129  9005  9004 1
 6130  9006  9005 1
 6131  9008  9007 1
 6132  9008  9031 1
 6133  9009  8999 1
 6134  9010  8999 1
 6135  9011  9006 1
 6136  9012  9006 1
 6137  9012  9007 1
 6138  9022  9021 1
 6139  9023  9022 1
 6140  9024  9023 1
 6141  9025  9022 1
 6142  9026  9025 1
 6143  9027  9024 1
 6144  9027  9026 1
 6145  9028  9027 1
 6146  9030  9029 1
 6147  9030  9053 1
 6148  9031  9021 1
 6149  9032  9021 1
 6150  9033  9028 1
 6151  9034  9028 1
 6152  9034  9029 1
 6153  9044  9043 1
 6154  9045  9044 1
 6155  9046  9045 1
 6156  9047  9044 1
 6157  9048  9047 1
 6158  9049  9046 1
 6159  9049  9048 1
 6160  9050  9049 1
 6161  9052  9051 1
 6162  9052  9075 1
 6163  9053  9043 1
 6164  9054  9043 1
 6165  9055  9050 1
 6166  9056  9050 1
 6167  9056  9051 1
 6168  9066  9065 1
 6169  9067  9066 1
 6170  9068  9067 1
 6171  9069  9066 1
 6172  9070  9069 1
 6173  9071  9068 1
 6174  9071  9070 1
 6175  9072  9071 1
 6176  9074  9073 1
 6177  9074  9097 1
 6178  9075  9065 1
 6179  9076  9065 1
 6180  9077  9072 1
 6181  9078  9072 1
 6182  9078  9073 1
 6183  9088  9087 1
 6184  9089  9088 1
 6185  9090  9089 1
 6186  9091  9088 1
 6187  9092  9091 1
 6188  9093  9090 1
 6189  9093  9092 1
 6190  9094  9093 1
 6191  9096  9095 1
 6192  9096  9119 1
 6193  9097  9087 1
 6194  9098  9087 1
 6195  9099  9094 1
 6196  9100  9094 1
 6197  9100  9095 1
 6198  9110  9109 1
 6199  9111  9110 1
 6200  9112  9111 1
 6201  9113  9110 1
 6202  9114  9113 1
 6203  9115  9112 1
 6204  9115  9114 1
 6205  9116  9115 1
 6206  9118  9117 1
 6207  9118  9141 1
 6208  9119  9109 1
 6209  9120  9109 1
 6210  9121  9116 1
 6211  9122  9116 1
 6212  9122  9117 1
 6213  9132  9131 1
 6214  9133  9132 1
 6215  9134  9133 1
 6216  9135  9132 1
 6217  9136  9135 1
 6218  9137  9134 1
 6219  9137  9136 1
 6220  9138  9137 1
 6221  9140  9139 1
 6222  9140  9163 1
 6223  9141  9131 1
 6224  9142  9131 1
 6225  9143  9138 1
 6226  9144  9138 1
 6227  9144  9139 1
 6228  9154  9153 1
 6229  9155  9154 1
 6230  9156  9155 1
 6231  9157  9154 1
 6232  9158  9157 1
 6233  9159  9156 1
 6234  9159  9158 1
 6235  9160  9159 1
 6236  9162  9161 1
 6237  9162  9185 1
 6238  9163  9153 1
 6239  9164  9153 1
 6240  9165  9160 1
 6241  9166  9160 1
 6242  9166  9161 1
 6243  9176  9175 1
 6244  9177  9176 1
 6245  9178  9177 1
 6246  9179  9176 1
 6247  9180  9179 1
 6248  9181  9178 1
 6249  9181  9180 1
 6250  9182  9181 1
 6251  9184  9183 1
 6252  9184  9207 1
 6253  9185  9175 1
 6254  9186  9175 1
 6255  9187  9182 1
 6256  9188  9182 1
 6257  9188  9183 1
 6258  9198  9197 1
 6259  9199  9198 1
 6260  9200  9199 1
 6261  9201  9198 1
 6262  9202  9201 1
 6263  9203  9200 1
 6264  9203  9202 1
 6265  9204  9203 1
 6266  9206  9205 1
 6267  9206  9229 1
 6268  9207  9197 1
 6269  9208  9197 1
 6270  9209  9204 1
 6271  9210  9204 1
 6272  9210  9205 1
 6273  9220  9219 1
 6274  9221  9220 1
 6275  9222  9221 1
 6276  9223  9220 1
 6277  9224  9223 1
 6278  9225  9222 1
 6279  9225  9224 1
 6280  9226  9225 1
 6281  9228  9227 1
 6282  9229  9219 1
 6283  9230  9219 1
 6284  9231  9226 1
 6285  9232  9226 1
 6286  9232  9227 1
 6287  9242  9241 1
 6288  9243  9242 1
 6289  9244  9243 1
 6290  9245  9242 1
 6291  9246  9245 1
 6292  9247  9244 1
 6293  9247  9246 1
 6294  9248  9247 1
 6295  9250  9249 1
 6296  9250  9273 1
 6297  9251  9241 1
 6298  9252  9241 1
 6299  9253  9248 1
 6300  9254  9248 1
 6301  9254  9249 1
 6302  9264  9263 1
 6303  9265  9264 1
 6304  9266  9265 1
 6305  9267  9264 1
 6306  9268  9267 1
 6307  9269  9266 1
 6308  9269  9268 1
 6309  9270  9269 1
 6310  9272  9271 1
 6311  9272  9295 1
 6312  9273  9263 1
 6313  9274  9263 1
 6314  9275  9270 1
 6315  9276  9270 1
 6316  9276  9271 1
 6317  9286  9285 1
 6318  9287  9286 1
 6319  9288  9287 1
 6320  9289  9286 1
 6321  9290  9289 1
 6322  9291  9288 1
 6323  9291  9290 1
 6324  9292  9291 1
 6325  9294  9293 1
 6326  9294  9317 1
 6327  9295  9285 1
 6328  9296  9285 1
 6329  9297  9292 1
 6330  9298  9292 1
 6331  9298  9293 1
 6332  9308  9307 1
 6333  9309  9308 1
 6334  9310  9309 1
 6335  9311  9308 1
 6336  9312  9311 1
 6337  9313  9310 1
 6338  9313  9312 1
 6339  9314  9313 1
 6340  9316  9315 1
 6341  9316  9339 1
 6342  9317  9307 1
 6343  9318  9307 1
 6344  9319  9314 1
 6345  9320  9314 1
 6346  9320  9315 1
 6347  9330  9329 1
 6348  9331  9330 1
 6349  9332  9331 1
 6350  9333  9330 1
 6351  9334  9333 1
 6352  9335  9332 1
 6353  9335  9334 1
 6354  9336  9335 1
 6355  9338  9337 1
 6356  9338  9361 1
 6357  9339  9329 1
 6358  9340  9329 1
 6359  9341  9336 1
 6360  9342  9336 1
 6361  9342  9337 1
 6362  9352  9351 1
 6363  9353  9352 1
 6364  9354  9353 1
 6365  9355  9352 1
 6366  9356  9355 1
 6367  9357  9354 1
 6368  9357  9356 1
 6369  9358  9357 1
 6370  9360  9359 1
 6371  9360  9383 1
 6372  9361  9351 1
 6373  9362  9351 1
 6374  9363  9358 1
 6375  9364  9358 1
 6376  9364  9359 1
 6377  9374  9373 1
 6378  9375  9374 1
 6379  9376  9375 1
 6380  9377  9374 1
 6381  9378  9377 1
 6382  9379  9376 1
 6383  9379  9378 1
 6384  9380  9379 1
 6385  9382  9381 1
 6386  9382  9405 1
 6387  9383  9373 1
 6388  9384  9373 1
 6389  9385  9380 1
 6390  9386  9380 1
 6391  9386  9381 1
 6392  9396  9395 1
 6393  9397  9396 1
 6394  9398  9397 1
 6395  9399  9396 1
 6396  9400  9399 1
 6397  9401  9398 1
 6398  9401  9400 1
 6399  9402  9401 1
 6400  9404  9403 1
 6401  9404  9427 1
 6402  9405  9395 1
 6403  9406  9395 1
 6404  9407  9402 1
 6405  9408  9402 1
 6406  9408  9403 1
 6407  9418  9417 1
 6408  9419  9418 1
 6409  9420  9419 1
 6410  9421  9418 1
 6411  9422  9421 1
 6412  9423  9420 1
 6413  9423  9422 1
 6414  9424  9423 1
 6415  9426  9425 1
 6416  9426  9449 1
 6417  9427  9417 1
 6418  9428  9417 1
 6419  9429  9424 1
 6420  9430  9424 1
 6421  9430  9425 1
 6422  9440  9439 1
 6423  9441  9440 1
 6424  9442  9441 1
 6425  9443  9440 1
 6426  9444  9443 1
 6427  9445  9442 1
 6428  9445  9444 1
 6429  9446  9445 1
 6430  9448  9447 1
 6431  9448  9471 1
 6432  9449  9439 1
 6433  9450  9439 1
 6434  9451  9446 1
 6435  9452  9446 1
 6436  9452  9447 1
 6437  9462  9461 1
 6438  9463  9462 1
 6439  9464  9463 1
 6440  9465  9462 1
 6441  9466  9465 1
 6442  9467  9464 1
 6443  9467  9466 1
 6444  9468  9467 1
 6445  9470  9469 1
 6446  9470  9493 1
 6447  9471  9461 1
 6448  9472  9461 1
 6449  9473  9468 1
 6450  9474  9468 1
 6451  9474  9469 1
 6452  9484  9483 1
 6453  9485  9484 1
 6454  9486  9485 1
 6455  9487  9484 1
 6456  9488  9487 1
 6457  9489  9486 1
 6458  9489  9488 1
 6459  9490  9489 1
 6460  9492  9491 1
 6461  9492  9515 1
 6462  9493  9483 1
 6463  9494  9483 1
 6464  9495  9490 1
 6465  9496  9490 1
 6466  9496  9491 1
 6467  9506  9505 1
 6468  9507  9506 1
 6469  9508  9507 1
 6470  9509  9506 1
 6471  9510  9509 1
 6472  9511  9508 1
 6473  9511  9510 1
 6474  9512  9511 1
 6475  9514  9513 1
 6476  9514  9537 1
 6477  9515  9505 1
 6478  9516  9505 1
 6479  9517  9512 1
 6480  9518  9512 1
 6481  9518  9513 1
 6482  9528  9527 1
 6483  9529  9528 1
 6484  9530  9529 1
 6485  9531  9528 1
 6486  9532  9531 1
 6487  9533  9530 1
 6488  9533  9532 1
 6489  9534  9533 1
 6490  9536  9535 1
 6491  9536  9559 1
 6492  9537  9527 1
 6493  9538  9527 1
 6494  9539  9534 1
 6495  9540  9534 1
 6496  9540  9535 1
 6497  9550  9549 1
 6498  9551  9550 1
 6499  9552  9551 1
 6500  9553  9550 1
 6501  9554  9553 1
 6502  9555  9552 1
 6503  9555  9554 1
 6504  9556  9555 1
 6505  9558  9557 1
 6506  9558  9581 1
 6507  9559  9549 1
 6508  9560  9549 1
 6509  9561  9556 1
 6510  9562  9556 1
 6511  9562  9557 1
 6512  9572  9571 1
 6513  9573  9572 1
 6514  9574  9573 1
 6515  9575  9572 1
 6516  9576  9575 1
 6517  9577  9574 1
 6518  9577  9576 1
 6519  9578  9577 1
 6520  9580  9579 1
 6521  9580  9603 1
 6522  9581  9571 1
 6523  9582  9571 1
 6524  9583  9578 1
 6525  9584  9578 1
 6526  9584  9579 1
 6527  9594  9593 1
 6528  9595  9594 1
 6529  9596  9595 1
 6530  9597  9594 1
 6531  9598  9597 1
 6532  9599  9596 1
 6533  9599  9598 1
 6534  9600  9599 1
 6535  9602  9601 1
 6536  9602  9625 1
 6537  9603  9593 1
 6538  9604  9593 1
 6539  9605  9600 1
 6540  9606  9600 1
 6541  9606  9601 1
 6542  9616  9615 1
 6543  9617  9616 1
 6544  9618  9617 1
 6545  9619  9616 1
 6546  9620  9619 1
 6547  9621  9618 1
 6548  9621  9620 1
 6549  9622  9621 1
 6550  9624  9623 1
 6551  9624  9647 1
 6552  9625  9615 1
 6553  9626  9615 1
 6554  9627  9622 1
 6555  9628  9622 1
 6556  9628  9623 1
 6557  9638  9637 1
 6558  9639  9638 1
 6559  9640  9639 1
 6560  9641  9638 1
 6561  9642  9641 1
 6562  9643  9640 1
 6563  9643  9642 1
 6564  9644  9643 1
 6565  9646  9645 1
 6566  9646  9669 1
 6567  9647  9637 1
 6568  9648  9637 1
 6569  9649  9644 1
 6570  9650  9644 1
 6571  9650  9645 1
 6572  9660  9659 1
 6573  9661  9660 1
 6574  9662  9661 1
 6575  9663  9660 1
 6576  9664  9663 1
 6577  9665  9662 1
 6578  9665  9664 1
 6579  9666  9665 1
 6580  9668  9667 1
 6581  9668  9691 1
 6582  9669  9659 1
 6583  9670  9659 1
 6584  9671  9666 1
 6585  9672  9666 1
 6586  9672  9667 1
 6587  9682  9681 1
 6588  9683  9682 1
 6589  9684  9683 1
 6590  9685  9682 1
 6591  9686  9685 1
 6592  9687  9684 1
 6593  9687  9686 1
 6594  9688  9687 1
 6595  9690  9689 1
 6596  9690  9713 1
 6597  9691  9681 1
 6598  9692  9681 1
 6599  9693  9688 1
 6600  9694  9688 1
 6601  9694  9689 1
 6602  9704  9703 1
 6603  9705  9704 1
 6604  9706  9705 1
 6605  9707  9704 1
 6606  9708  9707 1
 6607  9709  9706 1
 6608  9709  9708 1
 6609  9710  9709 1
 6610  9712  9711 1
 6611  9712  9735 1
 6612  9713  9703 1
 6613  9714  9703 1
 6614  9715  9710 1
 6615  9716  9710 1
 6616  9716  9711 1
 6617  9726  9725 1
 6618  9727  9726 1
 6619  9728  9727 1
 6620  9729  9726 1
 6621  9730  9729 1
 6622  9731  9728 1
 6623  9731  9730 1
 6624  9732  9731 1
 6625  9734  9733 1
 6626  9734  9757 1
 6627  9735  9725 1
 6628  9736  9725 1
 6629  9737  9732 1
 6630  9738  9732 1
 6631  9738  9733 1
 6632  9748  9747 1
 6633  9749  9748 1
 6634  9750  9749 1
 6635  9751  9748 1
 6636  9752  9751 1
 6637  9753  9750 1
 6638  9753  9752 1
 6639  9754  9753 1
 6640  9756  9755 1
 6641  9756  9779 1
 6642  9757  9747 1
 6643  9758  9747 1
 6644  9759  9754 1
 6645  9760  9754 1
 6646  9760  9755 1
 6647  9770  9769 1
 6648  9771  9770 1
 6649  9772  9771 1
 6650  9773  9770 1
 6651  9774  9773 1
 6652  9775  9772 1
 6653  9775  9774 1
 6654  9776  9775 1
 6655  9778  9777 1
 6656  9778  9801 1
 6657  9779  9769 1
 6658  9780  9769 1
 6659  9781  9776 1
 6660  9782  9776 1
 6661  9782  9777 1
 6662  9792  9791 1
 6663  9793  9792 1
 6664  9794  9793 1
 6665  9795  9792 1
 6666  9796  9795 1
 6667  9797  9794 1
 6668  9797  9796 1
 6669  9798  9797 1
 6670  9800  9799 1
 6671  9800  9823 1
 6672  9801  9791 1
 6673  9802  9791 1
 6674  9803  9798 1
 6675  9804  9798 1
 6676  9804  9799 1
 6677  9814  9813 1
 6678  9815  9814 1
 6679  9816  9815 1
 6680  9817  9814 1
 6681  9818  9817 1
 6682  9819  9816 1
 6683  9819  9818 1
 6684  9820  9819 1
 6685  9822  9821 1
 6686  9822  9845 1
 6687  9823  9813 1
 6688  9824  9813 1
 6689  9825  9820 1
 6690  9826  9820 1
 6691  9826  9821 1
 6692  9836  9835 1
 6693  9837  9836 1
 6694  9838  9837 1
 6695  9839  9836 1
 6696  9840  9839 1
 6697  9841  9838 1
 6698  9841  9840 1
 6699  9842  9841 1
 6700  9844  9843 1
 6701  9844  9867 1
 6702  9845  9835 1
 6703  9846  9835 1
 6704  9847  9842 1
 6705  9848  9842 1
 6706  9848  9843 1
 6707  9858  9857 1
 6708  9859  9858 1
 6709  9860  9859 1
 6710  9861  9858 1
 6711  9862  9861 1
 6712  9863  9860 1
 6713  9863  9862 1
 6714  9864  9863 1
 6715  9866  9865 1
 6716  9866  9889 1
 6717  9867  9857 1
 6718  9868  9857 1
 6719  9869  9864 1
 6720  9870  9864 1
 6721  9870  9865 1
 6722  9880  9879 1
 6723  9881  9880 1
 6724  9882  9881 1
 6725  9883  9880 1
 6726  9884  9883 1
 6727  9885  9882 1
 6728  9885  9884 1
 6729  9886  9885 1
 6730  9888  9887 1
 6731  9889  9879 1
 6732  9890  9879 1
 6733  9891  9886 1
 6734  9892  9886 1
 6735  9892  9887 1
 6736  9902  9901 1
 6737  9903  9902 1
 6738  9904  9903 1
 6739  9905  9902 1
 6740  9906  9905 1
 6741  9907  9904 1
 6742  9907  9906 1
 6743  9908  9907 1
 6744  9910  9909 1
 6745  9910  9933 1
 6746  9911  9901 1
 6747  9912  9901 1
 6748  9913  9908 1
 6749  9914  9908 1
 6750  9914  9909 1
 6751  9924  9923 1
 6752  9925  9924 1
 6753  9926  9925 1
 6754  9927  9924 1
 6755  9928  9927 1
 6756  9929  9926 1
 6757  9929  9928 1
 6758  9930  9929 1
 6759  9932  9931 1
 6760  9932  9955 1
 6761  9933  9923 1
 6762  9934  9923 1
 6763  9935  9930 1
 6764  9936  9930 1
 6765  9936  9931 1
 6766  9946  9945 1
 6767  9947  9946 1
 6768  9948  9947 1
 6769  9949  9946 1
 6770  9950  9949 1
 6771  9951  9948 1
 6772  9951  9950 1
 6773  9952  9951 1
 6774  9954  9953 1
 6775  9954  9977 1
 6776  9955  9945 1
 6777  9956  9945 1
 6778  9957  9952 1
 6779  9958  9952 1
 6780  9958  9953 1
 6781  9968  9967 1
 6782  9969  9968 1
 6783  9970  9969 1
 6784  9971  9968 1
 6785  9972  9971 1
 6786  9973  9970 1
 6787  9973  9972 1
 6788  9974  9973 1
 6789  9976  9975 1
 6790  9976  9999 1
 6791  9977  9967 1
 6792  9978  9967 1
 6793  9979  9974 1
 6794  9980  9974 1
 6795  9980  9975 1
 6796  9990  9989 1
 6797  9991  9990 1
 6798  9992  9991 1
 6799  9993  9990 1
 6800  9994  9993 1
 6801  9995  9992 1
 6802  9995  9994 1
 6803  9996  9995 1
 6804  9998  9997 1
 6805  9998 10021 1
 6806  9999  9989 1
 6807 10000  9989 1
 6808 10001  9996 1
 6809 10002  9996 1
 6810 10002  9997 1
 6811 10012 10011 1
 6812 10013 10012 1
 6813 10014 10013 1
 6814 10015 10012 1
 6815 10016 10015 1
 6816 10017 10014 1
 6817 10017 10016 1
 6818 10018 10017 1
 6819 10020 10019 1
 6820 10020 10043 1
 6821 10021 10011 1
 6822 10022 10011 1
 6823 10023 10018 1
 6824 10024 10018 1
 6825 10024 10019 1
 6826 10034 10033 1
 6827 10035 10034 1
 6828 10036 10035 1
 6829 10037 10034 1
 6830 10038 10037 1
 6831 10039 10036 1
 6832 10039 10038 1
 6833 10040 10039 1
 6834 10042 10041 1
 6835 10042 10065 1
 6836 10043 10033 1
 6837 10044 10033 1
 6838 10045 10040 1
 6839 10046 10040 1
 6840 10046 10041 1
 6841 10056 10055 1
 6842 10057 10056 1
 6843 10058 10057 1
 6844 10059 10056 1
 6845 10060 10059 1
 6846 10061 10058 1
 6847 10061 10060 1
 6848 10062 10061 1
 6849 10064 10063 1
 6850 10064 10087 1
 6851 10065 10055 1
 6852 10066 10055 1
 6853 10067 10062 1
 6854 10068 10062 1
 6855 10068 10063 1
 6856 10078 10077 1
 6857 10079 10078 1
 6858 10080 10079 1
 6859 10081 10078 1
 6860 10082 10081 1
 6861 10083 10080 1
 6862 10083 10082 1
 6863 10084 10083 1
 6864 10086 10085 1
 6865 10086 10109 1
 6866 10087 10077 1
 6867 10088 10077 1
 6868 10089 10084 1
 6869 10090 10084 1
 6870 10090 10085 1
 6871 10100 10099 1
 6872 10101 10100 1
 6873 10102 10101 1
 6874 10103 10100 1
 6875 10104 10103 1
 6876 10105 10102 1
 6877 10105 10104 1
 6878 10106 10105 1
 6879 10108 10107 1
 6880 10108 10131 1
 6881 10109 10099 1
 6882 10110 10099 1
 6883 10111 10106 1
 6884 10112 10106 1
 6885 10112 10107 1
 6886 10122 10121 1
 6887 10123 10122 1
 6888 10124 10123 1
 6889 10125 10122 1
 6890 10126 10125 1
 6891 10127 10124 1
 6892 10127 10126 1
 6893 10128 10127 1
 6894 10130 10129 1
 6895 10130 10153 1
 6896 10131 10121 1
 6897 10132 10121 1
 6898 10133 10128 1
 6899 10134 10128 1
 6900 10134 10129 1
 6901 10144 10143 1
 6902 10145 10144 1
 6903 10146 10145 1
 6904 10147 10144 1
 6905 10148 10147 1
 6906 10149 10146 1
 6907 10149 10148 1
 6908 10150 10149 1
 6909 10152 10151 1
 6910 10152 10175 1
 6911 10153 10143 1
 6912 10154 10143 1
 6913 10155 10150 1
 6914 10156 10150 1
 6915 10156 10151 1
 6916 10166 10165 1
 6917 10167 10166 1
 6918 10168 10167 1
 6919 10169 10166 1
 6920 10170 10169 1
 6921 10171 10168 1
 6922 10171 10170 1
 6923 10172 10171 1
 6924 10174 10173 1
 6925 10174 10197 1
 6926 10175 10165 1
 6927 10176 10165 1
 6928 10177 10172 1
 6929 10178 10172 1
 6930 10178 10173 1
 6931 10188 10187 1
 6932 10189 10188 1
 6933 10190 10189 1
 6934 10191 10188 1
 6935 10192 10191 1
 6936 10193 10190 1
 6937 10193 10192 1
 6938 10194 10193 1
 6939 10196 10195 1
 6940 10196 10219 1
 6941 10197 10187 1
 6942 10198 10187 1
 6943 10199 10194 1
 6944 10200 10194 1
 6945 10200 10195 1
 6946 10210 10209 1
 6947 10211 10210 1
 6948 10212 10211 1
 6949 10213 10210 1
 6950 10214 10213 1
 6951 10215 10212 1
 6952 10215 10214 1
 6953 10216 10215 1
 6954 10218 10217 1
 6955 10218 10241 1
 6956 10219 10209 1
 6957 10220 10209 1
 6958 10221 10216 1
 6959 10222 10216 1
 6960 10222 10217 1
 6961 10232 10231 1
 6962 10233 10232 1
 6963 10234 10233 1
 6964 10235 10232 1
 6965 10236 10235 1
 6966 10237 10234 1
 6967 10237 10236 1
 6968 10238 10237 1
 6969 10240 10239 1
 6970 10240 10263 1
 6971 10241 10231 1
 6972 10242 10231 1
 6973 10243 10238 1
 6974 10244 10238 1
 6975 10244 10239 1
 6976 10254 10253 1
 6977 10255 10254 1
 6978 10256 10255 1
 6979 10257 10254 1
 6980 10258 10257 1
 6981 10259 10256 1
 6982 10259 10258 1
 6983 10260 10259 1
 6984 10262 10261 1
 6985 10262 10285 1
 6986 10263 10253 1
 6987 10264 10253 1
 6988 10265 10260 1
 6989 10266 10260 1
 6990 10266 10261 1
 6991 10276 10275 1
 6992 10277 10276 1
 6993 10278 10277 1
 6994 10279 10276 1
 6995 10280 10279 1
 6996 10281 10278 1
 6997 10281 10280 1
 6998 10282 10281 1
 6999 10284 10283 1
 7000 10284 10307 1
 7001 10285 10275 1
 7002 10286 10275 1
 7003 10287 10282 1
 7004 10288 10282 1
 7005 10288 10283 1
 7006 10298 10297 1
 7007 10299 10298 1
 7008 10300 10299 1
 7009 10301 10298 1
 7010 10302 10301 1
 7011 10303 10300 1
 7012 10303 10302 1
 7013 10304 10303 1
 7014 10306 10305 1
 7015 10306 10329 1
 7016 10307 10297 1
 7017 10308 10297 1
 7018 10309 10304 1
 7019 10310 10304 1
 7020 10310 10305 1
 7021 10320 10319 1
 7022 10321 10320 1
 7023 10322 10321 1
 7024 10323 10320 1
 7025 10324 10323 1
 7026 10325 10322 1
 7027 10325 10324 1
 7028 10326 10325 1
 7029 10328 10327 1
 7030 10328 10351 1
 7031 10329 10319 1
 7032 10330 10319 1
 7033 10331 10326 1
 7034 10332 10326 1
 7035 10332 10327 1
 7036 10342 10341 1
 7037 10343 10342 1
 7038 10344 10343 1
 7039 10345 10342 1
 7040 10346 10345 1
 7041 10347 10344 1
 7042 10347 10346 1
 7043 10348 10347 1
 7044 10350 10349 1
 7045 10350 10373 1
 7046 10351 10341 1
 7047 10352 10341 1
 7048 10353 10348 1
 7049 10354 10348 1
 7050 10354 10349 1
 7051 10364 10363 1
 7052 10365 10364 1
 7053 10366 10365 1
 7054 10367 10364 1
 7055 10368 10367 1
 7056 10369 10366 1
 7057 10369 10368 1
 7058 10370 10369 1
 7059 10372 10371 1
 7060 10372 10395 1
 7061 10373 10363 1
 7062 10374 10363 1
 7063 10375 10370 1
 7064 10376 10370 1
 7065 10376 10371 1
 7066 10386 10385 1
 7067 10387 10386 1
 7068 10388 10387 1
 7069 10389 10386 1
 7070 10390 10389 1
 7071 10391 10388 1
 7072 10391 10390 1
 7073 10392 10391 1
 7074 10394 10393 1
 7075 10394 10417 1
 7076 10395 10385 1
 7077 10396 10385 1
 7078 10397 10392 1
 7079 10398 10392 1
 7080 10398 10393 1
 7081 10408 10407 1
 7082 10409 10408 1
 7083 10410 10409 1
 7084 10411 10408 1
 7085 10412 10411 1
 7086 10413 10410 1
 7087 10413 10412 1
 7088 10414 10413 1
 7089 10416 10415 1
 7090 10416 10439 1
 7091 10417 10407 1
 7092 10418 10407 1
 7093 10419 10414 1
 7094 10420 10414 1
 7095 10420 10415 1
 7096 10430 10429 1
 7097 10431 10430 1
 7098 10432 10431 1
 7099 10433 10430 1
 7100 10434 10433 1
 7101 10435 10432 1
 7102 10435 10434 1
 7103 10436 10435 1
 7104 10438 10437 1
 7105 10438 10461 1
 7106 10439 10429 1
 7107 10440 10429 1
 7108 10441 10436 1
 7109 10442 10436 1
 7110 10442 10437 1
 7111 10452 10451 1
 7112 10453 10452 1
 7113 10454 10453 1
 7114 10455 10452 1
 7115 10456 10455 1
 7116 10457 10454 1
 7117 10457 10456 1
 7118 10458 10457 1
 7119 10460 10459 1
 7120 10460 10483 1
 7121 10461 10451 1
 7122 10462 10451 1
 7123 10463 10458 1
 7124 10464 10458 1
 7125 10464 10459 1
 7126 10474 10473 1
 7127 10475 10474 1
 7128 10476 10475 1
 7129 10477 10474 1
 7130 10478 10477 1
 7131 10479 10476 1
 7132 10479 10478 1
 7133 10480 10479 1
 7134 10482 10481 1
 7135 10482 10505 1
 7136 10483 10473 1
 7137 10484 10473 1
 7138 10485 10480 1
 7139 10486 10480 1
 7140 10486 10481 1
 7141 10496 10495 1
 7142 10497 10496 1
 7143 10498 10497 1
 7144 10499 10496 1
 7145 10500 10499 1
 7146 10501 10498 1
 7147 10501 10500 1
 7148 10502 10501 1
 7149 10504 10503 1
 7150 10504 10527 1
 7151 10505 10495 1
 7152 10506 10495 1
 7153 10507 10502 1
 7154 10508 10502 1
 7155 10508 10503 1
 7156 10518 10517 1
 7157 10519 10518 1
 7158 10520 10519 1
 7159 10521 10518 1
 7160 10522 10521 1
 7161 10523 10520 1
 7162 10523 10522 1
 7163 10524 10523 1
 7164 10526 10525 1
 7165 10526 10549 1
 7166 10527 10517 1
 7167 10528 10517 1
 7168 10529 10524 1
 7169 10530 10524 1
 7170 10530 10525 1
 7171 10540 10539 1
 7172 10541 10540 1
 7173 10542 10541 1
 7174 10543 10540 1
 7175 10544 10543 1
 7176 10545 10542 1
 7177 10545 10544 1
 7178 10546 10545 1
 7179 10548 10547 1
 7180 10549 10539 1
 7181 10550 10539 1
 7182 10551 10546 1
 7183 10552 10546 1
 7184 10552 10547 1
 7185 10562 10561 1
 7186 10563 10562 1
 7187 10564 10563 1
 7188 10565 10562 1
 7189 10566 10565 1
 7190 10567 10564 1
 7191 10567 10566 1
 7192 10568 10567 1
 7193 10570 10569 1
 7194 10570 10593 1
 7195 10571 10561 1
 7196 10572 10561 1
 7197 10573 10568 1
 7198 10574 10568 1
 7199 10574 10569 1
 7200 10584 10583 1
 7201 10585 10584 1
 7202 10586 10585 1
 7203 10587 10584 1
 7204 10588 10587 1
 7205 10589 10586 1
 7206 10589 10588 1
 7207 10590 10589 1
 7208 10592 10591 1
 7209 10592 10615 1
 7210 10593 10583 1
 7211 10594 10583 1
 7212 10595 10590 1
 7213 10596 10590 1
 7214 10596 10591 1
 7215 10606 10605 1
 7216 10607 10606 1
 7217 10608 10607 1
 7218 10609 10606 1
 7219 10610 10609 1
 7220 10611 10608 1
 7221 10611 10610 1
 7222 10612 10611 1
 7223 10614 10613 1
 7224 10614 10637 1
 7225 10615 10605 1
 7226 10616 10605 1
 7227 10617 10612 1
 7228 10618 10612 1
 7229 10618 10613 1
 7230 10628 10627 1
 7231 10629 10628 1
 7232 10630 10629 1
 7233 10631 10628 1
 7234 10632 10631 1
 7235 10633 10630 1
 7236 10633 10632 1
 7237 10634 10633 1
 7238 10636 10635 1
 7239 10636 10659 1
 7240 10637 10627 1
 7241 10638 10627 1
 7242 10639 10634 1
 7243 10640 10634 1
 7244 10640 10635 1
 7245 10650 10649 1
 7246 10651 10650 1
 7247 10652 10651 1
 7248 10653 10650 1
 7249 10654 10653 1
 7250 10655 10652 1
 7251 10655 10654 1
 7252 10656 10655 1
 7253 10658 10657 1
 7254 10658 10681 1
 7255 10659 10649 1
 7256 10660 10649 1
 7257 10661 10656 1
 7258 10662 10656 1
 7259 10662 10657 1
 7260 10672 10671 1
 7261 10673 10672 1
 7262 10674 10673 1
 7263 10675 10672 1
 7264 10676 10675 1
 7265 10677 10674 1
 7266 10677 10676 1
 7267 10678 10677 1
 7268 10680 10679 1
 7269 10680 10703 1
 7270 10681 10671 1
 7271 10682 10671 1
 7272 10683 10678 1
 7273 10684 10678 1
 7274 10684 10679 1
 7275 10694 10693 1
 7276 10695 10694 1
 7277 10696 10695 1
 7278 10697 10694 1
 7279 10698 10697 1
 7280 10699 10696 1
 7281 10699 10698 1
 7282 10700 10699 1
 7283 10702 10701 1
 7284 10702 10725 1
 7285 10703 10693 1
 7286 10704 10693 1
 7287 10705 10700 1
 7288 10706 10700 1
 7289 10706 10701 1
 7290 10716 10715 1
 7291 10717 10716 1
 7292 10718 10717 1
 7293 10719 10716 1
 7294 10720 10719 1
 7295 10721 10718 1
 7296 10721 10720 1
 7297 10722 10721 1
 7298 10724 10723 1
 7299 10724 10747 1
 7300 10725 10715 1
 7301 10726 10715 1
 7302 10727 10722 1
 7303 10728 10722 1
 7304 10728 10723 1
 7305 10738 10737 1
 7306 10739 10738 1
 7307 10740 10739 1
 7308 10741 10738 1
 7309 10742 10741 1
 7310 10743 10740 1
 7311 10743 10742 1
 7312 10744 10743 1
 7313 10746 10745 1
 7314 10746 10769 1
 7315 10747 10737 1
 7316 10748 10737 1
 7317 10749 10744 1
 7318 10750 10744 1
 7319 10750 10745 1
 7320 10760 10759 1
 7321 10761 10760 1
 7322 10762 10761 1
 7323 10763 10760 1
 7324 10764 10763 1
 7325 10765 10762 1
 7326 10765 10764 1
 7327 10766 10765 1
 7328 10768 10767 1
 7329 10768 10791 1
 7330 10769 10759 1
 7331 10770 10759 1
 7332 10771 10766 1
 7333 10772 10766 1
 7334 10772 10767 1
 7335 10782 10781 1
 7336 10783 10782 1
 7337 10784 10783 1
 7338 10785 10782 1
 7339 10786 10785 1
 7340 10787 10784 1
 7341 10787 10786 1
 7342 10788 10787 1
 7343 10790 10789 1
 7344 10790 10813 1
 7345 10791 10781 1
 7346 10792 10781 1
 7347 10793 10788 1
 7348 10794 10788 1
 7349 10794 10789 1
 7350 10804 10803 1
 7351 10805 10804 1
 7352 10806 10805 1
 7353 10807 10804 1
 7354 10808 10807 1
 7355 10809 10806 1
 7356 10809 10808 1
 7357 10810 10809 1
 7358 10812 10811 1
 7359 10812 10835 1
 7360 10813 10803 1
 7361 10814 10803 1
 7362 10815 10810 1
 7363 10816 10810 1
 7364 10816 10811 1
 7365 10826 10825 1
 7366 10827 10826 1
 7367 10828 10827 1
 7368 10829 10826 1
 7369 10830 10829 1
 7370 10831 10828 1
 7371 10831 10830 1
 7372 10832 10831 1
 7373 10834 10833 1
 7374 10834 10857 1
 7375 10835 10825 1
 7376 10836 10825 1
 7377 10837 10832 1
 7378 10838 10832 1
 7379 10838 10833 1
 7380 10848 10847 1
 7381 10849 10848 1
 7382 10850 10849 1
 7383 10851 10848 1
 7384 10852 10851 1
 7385 10853 10850 1
 7386 10853 10852 1
 7387 10854 10853 1
 7388 10856 10855 1
 7389 10856 10879 1
 7390 10857 10847 1
 7391 10858 10847 1
 7392 10859 10854 1
 7393 10860 10854 1
 7394 10860 10855 1
 7395 10870 10869 1
 7396 10871 10870 1
 7397 10872 10871 1
 7398 10873 10870 1
 7399 10874 10873 1
 7400 10875 10872 1
 7401 10875 10874 1
 7402 10876 10875 1
 7403 10878 10877 1
 7404 10878 10901 1
 7405 10879 10869 1
 7406 10880 10869 1
 7407 10881 10876 1
 7408 10882 10876 1
 7409 10882 10877 1
 7410 10892 10891 1
 7411 10893 10892 1
 7412 10894 10893 1
 7413 10895 10892 1
 7414 10896 10895 1
 7415 10897 10894 1
 7416 10897 10896 1
 7417 10898 10897 1
 7418 10900 10899 1
 7419 10900 10923 1
 7420 10901 10891 1
 7421 10902 10891 1
 7422 10903 10898 1
 7423 10904 10898 1
 7424 10904 10899 1
 7425 10914 10913 1
 7426 10915 10914 1
 7427 10916 10915 1
 7428 10917 10914 1
 7429 10918 10917 1
 7430 10919 10916 1
 7431 10919 10918 1
 7432 10920 10919 1
 7433 10922 10921 1
 7434 10922 10945 1
 7435 10923 10913 1
 7436 10924 10913 1
 7437 10925 10920 1
 7438 10926 10920 1
 7439 10926 10921 1
 7440 10936 10935 1
 7441 10937 10936 1
 7442 10938 10937 1
 7443 10939 10936 1
 7444 10940 10939 1
 7445 10941 10938 1
 7446 10941 10940 1
 7447 10942 10941 1
 7448 10944 10943 1
 7449 10944 10967 1
 7450 10945 10935 1
 7451 10946 10935 1
 7452 10947 10942 1
 7453 10948 10942 1
 7454 10948 10943 1
 7455 10958 10957 1
 7456 10959 10958 1
 7457 10960 10959 1
 7458 10961 10958 1
 7459 10962 10961 1
 7460 10963 10960 1
 7461 10963 10962 1
 7462 10964 10963 1
 7463 10966 10965 1
 7464 10966 10989 1
 7465 10967 10957 1
 7466 10968 10957 1
 7467 10969 10964 1
 7468 10970 10964 1
 7469 10970 10965 1
 7470 10980 10979 1
 7471 10981 10980 1
 7472 10982 10981 1
 7473 10983 10980 1
 7474 10984 10983 1
 7475 10985 10982 1
 7476 10985 10984 1
 7477 10986 10985 1
 7478 10988 10987 1
 7479 10988 11011 1
 7480 10989 10979 1
 7481 10990 10979 1
 7482 10991 10986 1
 7483 10992 10986 1
 7484 10992 10987 1
 7485 11002 11001 1
 7486 11003 11002 1
 7487 11004 11003 1
 7488 11005 11002 1
 7489 11006 11005 1
 7490 11007 11004 1
 7491 11007 11006 1
 7492 11008 11007 1
 7493 11010 11009 1
 7494 11010 11033 1
 7495 11011 11001 1
 7496 11012 11001 1
 7497 11013 11008 1
 7498 11014 11008 1
 7499 11014 11009 1
 7500 11024 11023 1
 7501 11025 11024 1
 7502 11026 11025 1
 7503 11027 11024 1
 7504 11028 11027 1
 7505 11029 11026 1
 7506 11029 11028 1
 7507 11030 11029 1
 7508 11032 11031 1
 7509 11032 11055 1
 7510 11033 11023 1
 7511 11034 11023 1
 7512 11035 11030 1
 7513 11036 11030 1
 7514 11036 11031 1
 7515 11046 11045 1
 7516 11047 11046 1
 7517 11048 11047 1
 7518 11049 11046 1
 7519 11050 11049 1
 7520 11051 11048 1
 7521 11051 11050 1
 7522 11052 11051 1
 7523 11054 11053 1
 7524 11054 11077 1
 7525 11055 11045 1
 7526 11056 11045 1
 7527 11057 11052 1
 7528 11058 11052 1
 7529 11058 11053 1
 7530 11068 11067 1
 7531 11069 11068 1
 7532 11070 11069 1
 7533 11071 11068 1
 7534 11072 11071 1
 7535 11073 11070 1
 7536 11073 11072 1
 7537 11074 11073 1
 7538 11076 11075 1
 7539 11076 11099 1
 7540 11077 11067 1
 7541 11078 11067 1
 7542 11079 11074 1
 7543 11080 11074 1
 7544 11080 11075 1
 7545 11090 11089 1
 7546 11091 11090 1
 7547 11092 11091 1
 7548 11093 11090 1
 7549 11094 11093 1
 7550 11095 11092 1
 7551 11095 11094 1
 7552 11096 11095 1
 7553 11098 11097 1
 7554 11098 11121 1
 7555 11099 11089 1
 7556 11100 11089 1
 7557 11101 11096 1
 7558 11102 11096 1
 7559 11102 11097 1
 7560 11112 11111 1
 7561 11113 11112 1
 7562 11114 11113 1
 7563 11115 11112 1
 7564 11116 11115 1
 7565 11117 11114 1
 7566 11117 11116 1
 7567 11118 11117 1
 7568 11120 11119 1
 7569 11120 11143 1
 7570 11121 11111 1
 7571 11122 11111 1
 7572 11123 11118 1
 7573 11124 11118 1
 7574 11124 11119 1
 7575 11134 11133 1
 7576 11135 11134 1
 7577 11136 11135 1
 7578 11137 11134 1
 7579 11138 11137 1
 7580 11139 11136 1
 7581 11139 11138 1
 7582 11140 11139 1
 7583 11142 11141 1
 7584 11142 11165 1
 7585 11143 11133 1
 7586 11144 11133 1
 7587 11145 11140 1
 7588 11146 11140 1
 7589 11146 11141 1
 7590 11156 11155 1
 7591 11157 11156 1
 7592 11158 11157 1
 7593 11159 11156 1
 7594 11160 11159 1
 7595 11161 11158 1
 7596 11161 11160 1
 7597 11162 11161 1
 7598 11164 11163 1
 7599 11164 11187 1
 7600 11165 11155 1
 7601 11166 11155 1
 7602 11167 11162 1
 7603 11168 11162 1
 7604 11168 11163 1
 7605 11178 11177 1
 7606 11179 11178 1
 7607 11180 11179 1
 7608 11181 11178 1
 7609 11182 11181 1
 7610 11183 11180 1
 7611 11183 11182 1
 7612 11184 11183 1
 7613 11186 11185 1
 7614 11186 11209 1
 7615 11187 11177 1
 7616 11188 11177 1
 7617 11189 11184 1
 7618 11190 11184 1
 7619 11190 11185 1
 7620 11200 11199 1
 7621 11201 11200 1
 7622 11202 11201 1
 7623 11203 11200 1
 7624 11204 11203 1
 7625 11205 11202 1
 7626 11205 11204 1
 7627 11206 11205 1
 7628 11208 11207 1
 7629 11209 11199 1
 7630 11210 11199 1
 7631 11211 11206 1
 7632 11212 11206 1
 7633 11212 11207 1
 7634 11222 11221 1
 7635 11223 11222 1
 7636 11224 11223 1
 7637 11225 11222 1
 7638 11226 11225 1
 7639 11227 11224 1
 7640 11227 11226 1
 7641 11228 11227 1
 7642 11230 11229 1
 7643 11230 11253 1
 7644 11231 11221 1
 7645 11232 11221 1
 7646 11233 11228 1
 7647 11234 11228 1
 7648 11234 11229 1
 7649 11244 11243 1
 7650 11245 11244 1
 7651 11246 11245 1
 7652 11247 11244 1
 7653 11248 11247 1
 7654 11249 11246 1
 7655 11249 11248 1
 7656 11250 11249 1
 7657 11252 11251 1
 7658 11252 11275 1
 7659 11253 11243 1
 7660 11254 11243 1
 7661 11255 11250 1
 7662 11256 11250 1
 7663 11256 11251 1
 7664 11266 11265 1
 7665 11267 11266 1
 7666 11268 11267 1
 7667 11269 11266 1
 7668 11270 11269 1
 7669 11271 11268 1
 7670 11271 11270 1
 7671 11272 11271 1
 7672 11274 11273 1
 7673 11274 11297 1
 7674 11275 11265 1
 7675 11276 11265 1
 7676 11277 11272 1
 7677 11278 11272 1
 7678 11278 11273 1
 7679 11288 11287 1
 7680 11289 11288 1
 7681 11290 11289 1
 7682 11291 11288 1
 7683 11292 11291 1
 7684 11293 11290 1
 7685 11293 11292 1
 7686 11294 11293 1
 7687 11296 11295 1
 7688 11296 11319 1
 7689 11297 11287 1
 7690 11298 11287 1
 7691 11299 11294 1
 7692 11300 11294 1
 7693 11300 11295 1
 7694 11310 11309 1
 7695 11311 11310 1
 7696 11312 11311 1
 7697 11313 11310 1
 7698 11314 11313 1
 7699 11315 11312 1
 7700 11315 11314 1
 7701 11316 11315 1
 7702 11318 11317 1
 7703 11318 11341 1
 7704 11319 11309 1
 7705 11320 11309 1
 7706 11321 11316 1
 7707 11322 11316 1
 7708 11322 11317 1
 7709 11332 11331 1
 7710 11333 11332 1
 7711 11334 11333 1
 7712 11335 11332 1
 7713 11336 11335 1
 7714 11337 11334 1
 7715 11337 11336 1
 7716 11338 11337 1
 7717 11340 11339 1
 7718 11340 11363 1
 7719 11341 11331 1
 7720 11342 11331 1
 7721 11343 11338 1
 7722 11344 11338 1
 7723 11344 11339 1
 7724 11354 11353 1
 7725 11355 11354 1
 7726 11356 11355 1
 7727 11357 11354 1
 7728 11358 11357 1
 7729 11359 11356 1
 7730 11359 11358 1
 7731 11360 11359 1
 7732 11362 11361 1
 7733 11362 11385 1
 7734 11363 11353 1
 7735 11364 11353 1
 7736 11365 11360 1
 7737 11366 11360 1
 7738 11366 11361 1
 7739 11376 11375 1
 7740 11377 11376 1
 7741 11378 11377 1
 7742 11379 11376 1
 7743 11380 11379 1
 7744 11381 11378 1
 7745 11381 11380 1
 7746 11382 11381 1
 7747 11384 11383 1
 7748 11384 11407 1
 7749 11385 11375 1
 7750 11386 11375 1
 7751 11387 11382 1
 7752 11388 11382 1
 7753 11388 11383 1
 7754 11398 11397 1
 7755 11399 11398 1
 7756 11400 11399 1
 7757 11401 11398 1
 7758 11402 11401 1
 7759 11403 11400 1
 7760 11403 11402 1
 7761 11404 11403 1
 7762 11406 11405 1
 7763 11406 11429 1
 7764 11407 11397 1
 7765 11408 11397 1
 7766 11409 11404 1
 7767 11410 11404 1
 7768 11410 11405 1
 7769 11420 11419 1
 7770 11421 11420 1
 7771 11422 11421 1
 7772 11423 11420 1
 7773 11424 11423 1
 7774 11425 11422 1
 7775 11425 11424 1
 7776 11426 11425 1
 7777 11428 11427 1
 7778 11428 11451 1
 7779 11429 11419 1
 7780 11430 11419 1
 7781 11431 11426 1
 7782 11432 11426 1
 7783 11432 11427 1
 7784 11442 11441 1
 7785 11443 11442 1
 7786 11444 11443 1
 7787 11445 11442 1
 7788 11446 11445 1
 7789 11447 11444 1
 7790 11447 11446 1
 7791 11448 11447 1
 7792 11450 11449 1
 7793 11450 11473 1
 7794 11451 11441 1
 7795 11452 11441 1
 7796 11453 11448 1
 7797 11454 11448 1
 7798 11454 11449 1
 7799 11464 11463 1
 7800 11465 11464 1
 7801 11466 11465 1
 7802 11467 11464 1
 7803 11468 11467 1
 7804 11469 11466 1
 7805 11469 11468 1
 7806 11470 11469 1
 7807 11472 11471 1
 7808 11472 11495 1
 7809 11473 11463 1
 7810 11474 11463 1
 7811 11475 11470 1
 7812 11476 11470 1
 7813 11476 11471 1
 7814 11486 11485 1
 7815 11487 11486 1
 7816 11488 11487 1
 7817 11489 11486 1
 7818 11490 11489 1
 7819 11491 11488 1
 7820 11491 11490 1
 7821 11492 11491 1
 7822 11494 11493 1
 7823 11494 11517 1
 7824 11495 11485 1
 7825 11496 11485 1
 7826 11497 11492 1
 7827 11498 11492 1
 7828 11498 11493 1
 7829 11508 11507 1
 7830 11509 11508 1
 7831 11510 11509 1
 7832 11511 11508 1
 7833 11512 11511 1
 7834 11513 11510 1
 7835 11513 11512 1
 7836 11514 11513 1
 7837 11516 11515 1
 7838 11516 11539 1
 7839 11517 11507 1
 7840 11518 11507 1
 7841 11519 11514 1
 7842 11520 11514 1
 7843 11520 11515 1
 7844 11530 11529 1
 7845 11531 11530 1
 7846 11532 11531 1
 7847 11533 11530 1
 7848 11534 11533 1
 7849 11535 11532 1
 7850 11535 11534 1
 7851 11536 11535 1
 7852 11538 11537 1
 7853 11538 11561 1
 7854 11539 11529 1
 7855 11540 11529 1
 7856 11541 11536 1
 7857 11542 11536 1
 7858 11542 11537 1
 7859 11552 11551 1
 7860 11553 11552 1
 7861 11554 11553 1
 7862 11555 11552 1
 7863 11556 11555 1
 7864 11557 11554 1
 7865 11557 11556 1
 7866 11558 11557 1
 7867 11560 11559 1
 7868 11560 11583 1
 7869 11561 11551 1
 7870 11562 11551 1
 7871 11563 11558 1
 7872 11564 11558 1
 7873 11564 11559 1
 7874 11574 11573 1
 7875 11575 11574 1
 7876 11576 11575 1
 7877 11577 11574 1
 7878 11578 11577 1
 7879 11579 11576 1
 7880 11579 11578 1
 7881 11580 11579 1
 7882 11582 11581 1
 7883 11582 11605 1
 7884 11583 11573 1
 7885 11584 11573 1
 7886 11585 11580 1
 7887 11586 11580 1
 7888 11586 11581 1
 7889 11596 11595 1
 7890 11597 11596 1
 7891 11598 11597 1
 7892 11599 11596 1
 7893 11600 11599 1
 7894 11601 11598 1
 7895 11601 11600 1
 7896 11602 11601 1
 7897 11604 11603 1
 7898 11604 11627 1
 7899 11605 11595 1
 7900 11606 11595 1
 7901 11607 11602 1
 7902 11608 11602 1
 7903 11608 11603 1
 7904 11618 11617 1
 7905 11619 11618 1
 7906 11620 11619 1
 7907 11621 11618 1
 7908 11622 11621 1
 7909 11623 11620 1
 7910 11623 11622 1
 7911 11624 11623 1
 7912 11626 11625 1
 7913 11626 11649 1
 7914 11627 11617 1
 7915 11628 11617 1
 7916 11629 11624 1
 7917 11630 11624 1
 7918 11630 11625 1
 7919 11640 11639 1
 7920 11641 11640 1
 7921 11642 11641 1
 7922 11643 11640 1
 7923 11644 11643 1
 7924 11645 11642 1
 7925 11645 11644 1
 7926 11646 11645 1
 7927 11648 11647 1
 7928 11648 11671 1
 7929 11649 11639 1
 7930 11650 11639 1
 7931 11651 11646 1
 7932 11652 11646 1
 7933 11652 11647 1
 7934 11662 11661 1
 7935 11663 11662 1
 7936 11664 11663 1
 7937 11665 11662 1
 7938 11666 11665 1
 7939 11667 11664 1
 7940 11667 11666 1
 7941 11668 11667 1
 7942 11670 11669 1
 7943 11670 11693 1
 7944 11671 11661 1
 7945 11672 11661 1
 7946 11673 11668 1
 7947 11674 11668 1
 7948 11674 11669 1
 7949 11684 11683 1
 7950 11685 11684 1
 7951 11686 11685 1
 7952 11687 11684 1
 7953 11688 11687 1
 7954 11689 11686 1
 7955 11689 11688 1
 7956 11690 11689 1
 7957 11692 11691 1
 7958 11692 11715 1
 7959 11693 11683 1
 7960 11694 11683 1
 7961 11695 11690 1
 7962 11696 11690 1
 7963 11696 11691 1
 7964 11706 11705 1
 7965 11707 11706 1
 7966 11708 11707 1
 7967 11709 11706 1
 7968 11710 11709 1
 7969 11711 11708 1
 7970 11711 11710 1
 7971 11712 11711 1
 7972 11714 11713 1
 7973 11714 11737 1
 7974 11715 11705 1
 7975 11716 11705 1
 7976 11717 11712 1
 7977 11718 11712 1
 7978 11718 11713 1
 7979 11728 11727 1
 7980 11729 11728 1
 7981 11730 11729 1
 7982 11731 11728 1
 7983 11732 11731 1
 7984 11733 11730 1
 7985 11733 11732 1
 7986 11734 11733 1
 7987 11736 11735 1
 7988 11736 11759 1
 7989 11737 11727 1
 7990 11738 11727 1
 7991 11739 11734 1
 7992 11740 11734 1
 7993 11740 11735 1
 7994 11750 11749 1
 7995 11751 11750 1
 7996 11752 11751 1
 7997 11753 11750 1
 7998 11754 11753 1
 7999 11755 11752 1
 8000 11755 11754 1
 8001 11756 11755 1
 8002 11758 11757 1
 8003 11758 11781 1
 8004 11759 11749 1
 8005 11760 11749 1
 8006 11761 11756 1
 8007 11762 11756 1
 8008 11762 11757 1
 8009 11772 11771 1
 8010 11773 11772 1
 8011 11774 11773 1
 8012 11775 11772 1
 8013 11776 11775 1
 8014 11777 11774 1
 8015 11777 11776 1
 8016 11778 11777 1
 8017 11780 11779 1
 8018 11780 11803 1
 8019 11781 11771 1
 8020 11782 11771 1
 8021 11783 11778 1
 8022 11784 11778 1
 8023 11784 11779 1
 8024 11794 11793 1
 8025 11795 11794 1
 8026 11796 11795 1
 8027 11797 11794 1
 8028 11798 11797 1
 8029 11799 11796 1
 8030 11799 11798 1
 8031 11800 11799 1
 8032 11802 11801 1
 8033 11802 11825 1
 8034 11803 11793 1
 8035 11804 11793 1
 8036 11805 11800 1
 8037 11806 11800 1
 8038 11806 11801 1
 8039 11816 11815 1
 8040 11817 11816 1
 8041 11818 11817 1
 8042 11819 11816 1
 8043 11820 11819 1
 8044 11821 11818 1
 8045 11821 11820 1
 8046 11822 11821 1
 8047 11824 11823 1
 8048 11824 11847 1
 8049 11825 11815 1
 8050 11826 11815 1
 8051 11827 11822 1
 8052 11828 11822 1
 8053 11828 11823 1
 8054 11838 11837 1
 8055 11839 11838 1
 8056 11840 11839 1
 8057 11841 11838 1
 8058 11842 11841 1
 8059 11843 11840 1
 8060 11843 11842 1
 8061 11844 11843 1
 8062 11846 11845 1
 8063 11846 11869 1
 8064 11847 11837 1
 8065 11848 11837 1
 8066 11849 11844 1
 8067 11850 11844 1
 8068 11850 11845 1
 8069 11860 11859 1
 8070 11861 11860 1
 8071 11862 11861 1
 8072 11863 11860 1
 8073 11864 11863 1
 8074 11865 11862 1
 8075 11865 11864 1
 8076 11866 11865 1
 8077 11868 11867 1
 8078 11869 11859 1
 8079 11870 11859 1
 8080 11871 11866 1
 8081 11872 11866 1
 8082 11872 11867 1
 8083    15     3 1
 8084    16     4 1
 8085    17     5 1
 8086    18     6 1
 8087    19     9 1
 8088    20     9 1
 8089    21    10 1
 8090    22    10 1
 8091    37    25 1
 8092    38    26 1
 8093    39    27 1
 8094    40    28 1
 8095    41    31 1
 8096    42    31 1
 8097    43    32 1
 8098    44    32 1
 8099    59    47 1
 8100    60    48 1
 8101    61    49 1
 8102    62    50 1
 8103    63    53 1
 8104    64    53 1
 8105    65    54 1
 8106    66    54 1
 8107    81    69 1
 8108    82    70 1
 8109    83    71 1
 8110    84    72 1
 8111    85    75 1
 8112    86    75 1
 8113    87    76 1
 8114    88    76 1
 8115   103    91 1
 8116   104    92 1
 8117   105    93 1
 8118   106    94 1
 8119   107    97 1
 8120   108    97 1
 8121   109    98 1
 8122   110    98 1
 8123   125   113 1
 8124   126   114 1
 8125   127   115 1
 8126   128   116 1
 8127   129   119 1
 8128   130   119 1
 8129   131   120 1
 8130   132   120 1
 8131   147   135 1
 8132   148   136 1
 8133   149   137 1
 8134   150   138 1
 8135   151   141 1
 8136   152   141 1
 8137   153   142 1
 8138   154   142 1
 8139   169   157 1
 8140   170   158 1
 8141   171   159 1
 8142   172   160 1
 8143   173   163 1
 8144   174   163 1
 8145   175   164 1
 8146   176   164 1
 8147   191   179 1
 8148   192   180 1
 8149   193   181 1
 8150   194   182 1
 8151   195   185 1
 8152   196   185 1
 8153   197   186 1
 8154   198   186 1
 8155   213   201 1
 8156   214   202 1
 8157   215   203 1
 8158   216   204 1
 8159   217   207 1
 8160   218   207 1
 8161   219   208 1
 8162   220   208 1
 8163   235   223 1
 8164   236   224 1
 8165   237   225 1
 8166   238   226 1
 8167   239   229 1
 8168   240   229 1
 8169   241   230 1
 8170   242   230 1
 8171   257   245 1
 8172   258   246 1
 8173   259   247 1
 8174   260   248 1
 8175   261   251 1
 8176   262   251 1
 8177   263   252 1
 8178   264   252 1
 8179   279   267 1
 8180   280   268 1
 8181   281   269 1
 8182   282   270 1
 8183   283   273 1
 8184   284   273 1
 8185   285   274 1
 8186   286   274 1
 8187   301   289 1
 8188   302   290 1
 8189   303   291 1
 8190   304   292 1
 8191   305   295 1
 8192   306   295 1
 8193   307   296 1
 8194   308   296 1
 8195   323   311 1
 8196   324   312 1
 8197   325   313 1
 8198   326   314 1
 8199   327   317 1
 8200   328   317 1
 8201   329   318 1
 8202   330   318 1
 8203   345   333 1
 8204   346   334 1
 8205   347   335 1
 8206   348   336 1
 8207   349   339 1
 8208   350   339 1
 8209   351   340 1
 8210   352   340 1
 8211   367   355 1
 8212   368   356 1
 8213   369   357 1
 8214   370   358 1
 8215   371   361 1
 8216   372   361 1
 8217   373   362 1
 8218   374   362 1
 8219   389   377 1
 8220   390   378 1
 8221   391   379 1
 8222   392   380 1
 8223   393   383 1
 8224   394   383 1
 8225   395   384 1
 8226   396   384 1
 8227   411   399 1
 8228   412   400 1
 8229   413   401 1
 8230   414   402 1
 8231   415   405 1
 8232   416   405 1
 8233   417   406 1
 8234   418   406 1
 8235   433   421 1
 8236   434   422 1
 8237   435   423 1
 8238   436   424 1
 8239   437   427 1
 8240   438   427 1
 8241   439   428 1
 8242   440   428 1
 8243   455   443 1
 8244   456   444 1
 8245   457   445 1
 8246   458   446 1
 8247   459   449 1
 8248   460   449 1
 8249   461   450 1
 8250   462   450 1
 8251   477   465 1
 8252   478   466 1
 8253   479   467 1
 8254   480   468 1
 8255   481   471 1
 8256   482   471 1
 8257   483   472 1
 8258   484   472 1
 8259   499   487 1
 8260   500   488 1
 8261   501   489 1
 8262   502   490 1
 8263   503   493 1
 8264   504   493 1
 8265   505   494 1
 8266   506   494 1
 8267   521   509 1
 8268   522   510 1
 8269   523   511 1
 8270   524   512 1
 8271   525   515 1
 8272   526   515 1
 8273   527   516 1
 8274   528   516 1
 8275   543   531 1
 8276   544   532 1
 8277   545   533 1
 8278   546   534 1
 8279   547   537 1
 8280   548   537 1
 8281   549   538 1
 8282   550   538 1
 8283   565   553 1
 8284   566   554 1
 8285   567   555 1
 8286   568   556 1
 8287   569   559 1
 8288   570   559 1
 8289   571   560 1
 8290   572   560 1
 8291   587   575 1
 8292   588   576 1
 8293   589   577 1
 8294   590   578 1
 8295   591   581 1
 8296   592   581 1
 8297   593   582 1
 8298   594   582 1
 8299   609   597 1
 8300   610   598 1
 8301   611   599 1
 8302   612   600 1
 8303   613   603 1
 8304   614   603 1
 8305   615   604 1
 8306   616   604 1
 8307   631   619 1
 8308   632   620 1
 8309   633   621 1
 8310   634   622 1
 8311   635   625 1
 8312   636   625 1
 8313   637   626 1
 8314   638   626 1
 8315   653   641 1
 8316   654   642 1
 8317   655   643 1
 8318   656   644 1
 8319   657   647 1
 8320   658   647 1
 8321   659   648 1
 8322   660   648 1
 8323   675   663 1
 8324   676   664 1
 8325   677   665 1
 8326   678   666 1
 8327   679   669 1
 8328   680   669 1
 8329   681   670 1
 8330   682   670 1
 8331   697   685 1
 8332   698   686 1
 8333   699   687 1
 8334   700   688 1
 8335   701   691 1
 8336   702   691 1
 8337   703   692 1
 8338   704   692 1
 8339   719   707 1
 8340   720   708 1
 8341   721   709 1
 8342   722   710 1
 8343   723   713 1
 8344   724   713 1
 8345   725   714 1
 8346   726   714 1
 8347   741   729 1
 8348   742   730 1
 8349   743   731 1
 8350   744   732 1
 8351   745   735 1
 8352   746   735 1
 8353   747   736 1
 8354   748   736 1
 8355   763   751 1
 8356   764   752 1
 8357   765   753 1
 8358   766   754 1
 8359   767   757 1
 8360   768   757 1
 8361   769   758 1
 8362   770   758 1
 8363   785   773 1
 8364   786   774 1
 8365   787   775 1
 8366   788   776 1
 8367   789   779 1
 8368   790   779 1
 8369   791   780 1
 8370   792   780 1
 8371   807   795 1
 8372   808   796 1
 8373   809   797 1
 8374   810   798 1
 8375   811   801 1
 8376   812   801 1
 8377   813   802 1
 8378   814   802 1
 8379   829   817 1
 8380   830   818 1
 8381   831   819 1
 8382   832   820 1
 8383   833   823 1
 8384   834   823 1
 8385   835   824 1
 8386   836   824 1
 8387   851   839 1
 8388   852   840 1
 8389   853   841 1
 8390   854   842 1
 8391   855   845 1
 8392   856   845 1
 8393   857   846 1
 8394   858   846 1
 8395   873   861 1
 8396   874   862 1
 8397   875   863 1
 8398   876   864 1
 8399   877   867 1
 8400   878   867 1
 8401   879   868 1
 8402   880   868 1
 8403   895   883 1
 8404   896   884 1
 8405   897   885 1
 8406   898   886 1
 8407   899   889 1
 8408   900   889 1
 8409   901   890 1
 8410   902   890 1
 8411   917   905 1
 8412   918   906 1
 8413   919   907 1
 8414   920   908 1
 8415   921   911 1
 8416   922   911 1
 8417   923   912 1
 8418   924   912 1
 8419   939   927 1
 8420   940   928 1
 8421   941   929 1
 8422   942   930 1
 8423   943   933 1
 8424   944   933 1
 8425   945   934 1
 8426   946   934 1
 8427   961   949 1
 8428   962   950 1
 8429   963   951 1
 8430   964   952 1
 8431   965   955 1
 8432   966   955 1
 8433   967   956 1
 8434   968   956 1
 8435   983   971 1
 8436   984   972 1
 8437   985   973 1
 8438   986   974 1
 8439   987   977 1
 8440   988   977 1
 8441   989   978 1
 8442   990   978 1
 8443  1005   993 1
 8444  1006   994 1
 8445  1007   995 1
 8446  1008   996 1
 8447  1009   999 1
 8448  1010   999 1
 8449  1011  1000 1
 8450  1012  1000 1
 8451  1027  1015 1
 8452  1028  1016 1
 8453  1029  1017 1
 8454  1030  1018 1
 8455  1031  1021 1
 8456  1032  1021 1
 8457  1033  1022 1
 8458  1034  1022 1
 8459  1049  1037 1
 8460  1050  1038 1
 8461  1051  1039 1
 8462  1052  1040 1
 8463  1053  1043 1
 8464  1054  1043 1
 8465  1055  1044 1
 8466  1056  1044 1
 8467  1071  1059 1
 8468  1072  1060 1
 8469  1073  1061 1
 8470  1074  1062 1
 8471  1075  1065 1
 8472  1076  1065 1
 8473  1077  1066 1
 8474  1078  1066 1
 8475  1093  1081 1
 8476  1094  1082 1
 8477  1095  1083 1
 8478  1096  1084 1
 8479  1097  1087 1
 8480  1098  1087 1
 8481  1099  1088 1
 8482  1100  1088 1
 8483  1115  1103 1
 8484  1116  1104 1
 8485  1117  1105 1
 8486  1118  1106 1
 8487  1119  1109 1
 8488  1120  1109 1
 8489  1121  1110 1
 8490  1122  1110 1
 8491  1137  1125 1
 8492  1138  1126 1
 8493  1139  1127 1
 8494  1140  1128 1
 8495  1141  1131 1
 8496  1142  1131 1
 8497  1143  1132 1
 8498  1144  1132 1
 8499  1159  1147 1
 8500  1160  1148 1
 8501  1161  1149 1
 8502  1162  1150 1
 8503  1163  1153 1
 8504  1164  1153 1
 8505  1165  1154 1
 8506  1166  1154 1
 8507  1181  1169 1
 8508  1182  1170 1
 8509  1183  1171 1
 8510  1184  1172 1
 8511  1185  1175 1
 8512  1186  1175 1
 8513  1187  1176 1
 8514  1188  1176 1
 8515  1203  1191 1
 8516  1204  1192 1
 8517  1205  1193 1
 8518  1206  1194 1
 8519  1207  1197 1
 8520  1208  1197 1
 8521  1209  1198 1
 8522  1210  1198 1
 8523  1225  1213 1
 8524  1226  1214 1
 8525  1227  1215 1
 8526  1228  1216 1
 8527  1229  1219 1
 8528  1230  1219 1
 8529  1231  1220 1
 8530  1232  1220 1
 8531  1247  1235 1
 8532  1248  1236 1
 8533  1249  1237 1
 8534  1250  1238 1
 8535  1251  1241 1
 8536  1252  1241 1
 8537  1253  1242 1
 8538  1254  1242 1
 8539  1269  1257 1
 8540  1270  1258 1
 8541  1271  1259 1
 8542  1272  1260 1
 8543  1273  1263 1
 8544  1274  1263 1
 8545  1275  1264 1
 8546  1276  1264 1
 8547  1291  1279 1
 8548  1292  1280 1
 8549  1293  1281 1
 8550  1294  1282 1
 8551  1295  1285 1
 8552  1296  1285 1
 8553  1297  1286 1
 8554  1298  1286 1
 8555  1313  1301 1
 8556  1314  1302 1
 8557  1315  1303 1
 8558  1316  1304 1
 8559  1317  1307 1
 8560  1318  1307 1
 8561  1319  1308 1
 8562  1320  1308 1
 8563  1335  1323 1
 8564  1336  1324 1
 8565  1337  1325 1
 8566  1338  1326 1
 8567  1339  1329 1
 8568  1340  1329 1
 8569  1341  1330 1
 8570  1342  1330 1
 8571  1357  1345 1
 8572  1358  1346 1
 8573  1359  1347 1
 8574  1360  1348 1
 8575  1361  1351 1
 8576  1362  1351 1
 8577  1363  1352 1
 8578  1364  1352 1
 8579  1379  1367 1
 8580  1380  1368 1
 8581  1381  1369 1
 8582  1382  1370 1
 8583  1383  1373 1
 8584  1384  1373 1
 8585  1385  1374 1
 8586  1386  1374 1
 8587  1401  1389 1
 8588  1402  1390 1
 8589  1403  1391 1
 8590  1404  1392 1
 8591  1405  1395 1
 8592  1406  1395 1
 8593  1407  1396 1
 8594  1408  1396 1
 8595  1423  1411 1
 8596  1424  1412 1
 8597  1425  1413 1
 8598  1426  1414 1
 8599  1427  1417 1
 8600  1428  1417 1
 8601  1429  1418 1
 8602  1430  1418 1
 8603  1445  1433 1
 8604  1446  1434 1
 8605  1447  1435 1
 8606  1448  1436 1
 8607  1449  1439 1
 8608  1450  1439 1
 8609  1451  1440 1
 8610  1452  1440 1
 8611  1467  1455 1
 8612  1468  1456 1
 8613  1469  1457 1
 8614  1470  1458 1
 8615  1471  1461 1
 8616  1472  1461 1
 8617  1473  1462 1
 8618  1474  1462 1
 8619  1489  1477 1
 8620  1490  1478 1
 8621  1491  1479 1
 8622  1492  1480 1
 8623  1493  1483 1
 8624  1494  1483 1
 8625  1495  1484 1
 8626  1496  1484 1
 8627  1511  1499 1
 8628  1512  1500 1
 8629  1513  1501 1
 8630  1514  1502 1
 8631  1515  1505 1
 8632  1516  1505 1
 8633  1517  1506 1
 8634  1518  1506 1
 8635  1533  1521 1
 8636  1534  1522 1
 8637  1535  1523 1
 8638  1536  1524 1
 8639  1537  1527 1
 8640  1538  1527 1
 8641  1539  1528 1
 8642  1540  1528 1
 8643  1555  1543 1
 8644  1556  1544 1
 8645  1557  1545 1
 8646  1558  1546 1
 8647  1559  1549 1
 8648  1560  1549 1
 8649  1561  1550 1
 8650  1562  1550 1
 8651  1577  1565 1
 8652  1578  1566 1
 8653  1579  1567 1
 8654  1580  1568 1
 8655  1581  1571 1
 8656  1582  1571 1
 8657  1583  1572 1
 8658  1584  1572 1
 8659  1599  1587 1
 8660  1600  1588 1
 8661  1601  1589 1
 8662  1602  1590 1
 8663  1603  1593 1
 8664  1604  1593 1
 8665  1605  1594 1
 8666  1606  1594 1
 8667  1621  1609 1
 8668  1622  1610 1
 8669  1623  1611 1
 8670  1624  1612 1
 8671  1625  1615 1
 8672  1626  1615 1
 8673  1627  1616 1
 8674  1628  1616 1
 8675  1643  1631 1
 8676  1644  1632 1
 8677  1645  1633 1
 8678  1646  1634 1
 8679  1647  1637 1
 8680  1648  1637 1
 8681  1649  1638 1
 8682  1650  1638 1
 8683  1665  1653 1
 8684  1666  1654 1
 8685  1667  1655 1
 8686  1668  1656 1
 8687  1669  1659 1
 8688  1670  1659 1
 8689  1671  1660 1
 8690  1672  1660 1
 8691  1687  1675 1
 8692  1688  1676 1
 8693  1689  1677 1
 8694  1690  1678 1
 8695  1691  1681 1
 8696  1692  1681 1
 8697  1693  1682 1
 8698  1694  1682 1
 8699  1709  1697 1
 8700  1710  1698 1
 8701  1711  1699 1
 8702  1712  1700 1
 8703  1713  1703 1
 8704  1714  1703 1
 8705  1715  1704 1
 8706  1716  1704 1
 8707  1731  1719 1
 8708  1732  1720 1
 8709  1733  1721 1
 8710  1734  1722 1
 8711  1735  1725 1
 8712  1736  1725 1
 8713  1737  1726 1
 8714  1738  1726 1
 8715  1753  1741 1
 8716  1754  1742 1
 8717  1755  1743 1
 8718  1756  1744 1
 8719  1757  1747 1
 8720  1758  1747 1
 8721  1759  1748 1
 8722  1760  1748 1
 8723  1775  1763 1
 8724  1776  1764 1
 8725  1777  1765 1
 8726  1778  1766 1
 8727  1779  1769 1
 8728  1780  1769 1
 8729  1781  1770 1
 8730  1782  1770 1
 8731  1797  1785 1
 8732  1798  1786 1
 8733  1799  1787 1
 8734  1800  1788 1
 8735  1801  1791 1
 8736  1802  1791 1
 8737  1803  1792 1
 8738  1804  1792 1
 8739  1819  1807 1
 8740  1820  1808 1
 8741  1821  1809 1
 8742  1822  1810 1
 8743  1823  1813 1
 8744  1824  1813 1
 8745  1825  1814 1
 8746  1826  1814 1
 8747  1841  1829 1
 8748  1842  1830 1
 8749  1843  1831 1
 8750  1844  1832 1
 8751  1845  1835 1
 8752  1846  1835 1
 8753  1847  1836 1
 8754  1848  1836 1
 8755  1863  1851 1
 8756  1864  1852 1
 8757  1865  1853 1
 8758  1866  1854 1
 8759  1867  1857 1
 8760  1868  1857 1
 8761  1869  1858 1
 8762  1870  1858 1
 8763  1885  1873 1
 8764  1886  1874 1
 8765  1887  1875 1
 8766  1888  1876 1
 8767  1889  1879 1
 8768  1890  1879 1
 8769  1891  1880 1
 8770  1892  1880 1
 8771  1907  1895 1
 8772  1908  1896 1
 8773  1909  1897 1
 8774  1910  1898 1
 8775  1911  1901 1
 8776  1912  1901 1
 8777  1913  1902 1
 8778  1914  1902 1
 8779  1929  1917 1
 8780  1930  1918 1
 8781  1931  1919 1
 8782  1932  1920 1
 8783  1933  1923 1
 8784  1934  1923 1
 8785  1935  1924 1
 8786  1936  1924 1
 8787  1951  1939 1
 8788  1952  1940 1
 8789  1953  1941 1
 8790  1954  1942 1
 8791  1955  1945 1
 8792  1956  1945 1
 8793  1957  1946 1
 8794  1958  1946 1
 8795  1973  1961 1
 8796  1974  1962 1
 8797  1975  1963 1
 8798  1976  1964 1
 8799  1977  1967 1
 8800  1978  1967 1
 8801  1979  1968 1
 8802  1980  1968 1
 8803  1995  1983 1
 8804  1996  1984 1
 8805  1997  1985 1
 8806  1998  1986 1
 8807  1999  1989 1
 8808  2000  1989 1
 8809  2001  1990 1
 8810  2002  1990 1
 8811  2017  2005 1
 8812  2018  2006 1
 8813  2019  2007 1
 8814  2020  2008 1
 8815  2021  2011 1
 8816  2022  2011 1
 8817  2023  2012 1
 8818  2024  2012 1
 8819  2039  2027 1
 8820  2040  2028 1
 8821  2041  2029 1
 8822  2042  2030 1
 8823  2043  2033 1
 8824  2044  2033 1
 8825  2045  2034 1
 8826  2046  2034 1
 8827  2061  2049 1
 8828  2062  2050 1
 8829  2063  2051 1
 8830  2064  2052 1
 8831  2065  2055 1
 8832  2066  2055 1
 8833  2067  2056 1
 8834  2068  2056 1
 8835  2083  2071 1
 8836  2084  2072 1
 8837  2085  2073 1
 8838  2086  2074 1
 8839  2087  2077 1
 8840  2088  2077 1
 8841  2089  2078 1
 8842  2090  2078 1
 8843  2105  2093 1
 8844  2106  2094 1
 8845  2107  2095 1
 8846  2108  2096 1
 8847  2109  2099 1
 8848  2110  2099 1
 8849  2111  2100 1
 8850  2112  2100 1
 8851  2127  2115 1
 8852  2128  2116 1
 8853  2129  2117 1
 8854  2130  2118 1
 8855  2131  2121 1
 8856  2132  2121 1
 8857  2133  2122 1
 8858  2134  2122 1
 8859  2149  2137 1
 8860  2150  2138 1
 8861  2151  2139 1
 8862  2152  2140 1
 8863  2153  2143 1
 8864  2154  2143 1
 8865  2155  2144 1
 8866  2156  2144 1
 8867  2171  2159 1
 8868  2172  2160 1
 8869  2173  2161 1
 8870  2174  2162 1
 8871  2175  2165 1
 8872  2176  2165 1
 8873  2177  2166 1
 8874  2178  2166 1
 8875  2193  2181 1
 8876  2194  2182 1
 8877  2195  2183 1
 8878  2196  2184 1
 8879  2197  2187 1
 8880  2198  2187 1
 8881  2199  2188 1
 8882  2200  2188 1
 8883  2215  2203 1
 8884  2216  2204 1
 8885  2217  2205 1
 8886  2218  2206 1
 8887  2219  2209 1
 8888  2220  2209 1
 8889  2221  2210 1
 8890  2222  2210 1
 8891  2237  2225 1
 8892  2238  2226 1
 8893  2239  2227 1
 8894  2240  2228 1
 8895  2241  2231 1
 8896  2242  2231 1
 8897  2243  2232 1
 8898  2244  2232 1
 8899  2259  2247 1
 8900  2260  2248 1
 8901  2261  2249 1
 8902  2262  2250 1
 8903  2263  2253 1
 8904  2264  2253 1
 8905  2265  2254 1
 8906  2266  2254 1
 8907  2281  2269 1
 8908  2282  2270 1
 8909  2283  2271 1
 8910  2284  2272 1
 8911  2285  2275 1
 8912  2286  2275 1
 8913  2287  2276 1
 8914  2288  2276 1
 8915  2303  2291 1
 8916  2304  2292 1
 8917  2305  2293 1
 8918  2306  2294 1
 8919  2307  2297 1
 8920  2308  2297 1
 8921  2309  2298 1
 8922  2310  2298 1
 8923  2325  2313 1
 8924  2326  2314 1
 8925  2327  2315 1
 8926  2328  2316 1
 8927  2329  2319 1
 8928  2330  2319 1
 8929  2331  2320 1
 8930  2332  2320 1
 8931  2347  2335 1
 8932  2348  2336 1
 8933  2349  2337 1
 8934  2350  2338 1
 8935  2351  2341 1
 8936  2352  2341 1
 8937  2353  2342 1
 8938  2354  2342 1
 8939  2369  2357 1
 8940  2370  2358 1
 8941  2371  2359 1
 8942  2372  2360 1
 8943  2373  2363 1
 8944  2374  2363 1
 8945  2375  2364 1
 8946  2376  2364 1
 8947  2391  2379 1
 8948  2392  2380 1
 8949  2393  2381 1
 8950  2394  2382 1
 8951  2395  2385 1
 8952  2396  2385 1
 8953  2397  2386 1
 8954  2398  2386 1
 8955  2413  2401 1
 8956  2414  2402 1
 8957  2415  2403 1
 8958  2416  2404 1
 8959  2417  2407 1
 8960  2418  2407 1
 8961  2419  2408 1
 8962  2420  2408 1
 8963  2435  2423 1
 8964  2436  2424 1
 8965  2437  2425 1
 8966  2438  2426 1
 8967  2439  2429 1
 8968  2440  2429 1
 8969  2441  2430 1
 8970  2442  2430 1
 8971  2457  2445 1
 8972  2458  2446 1
 8973  2459  2447 1
 8974  2460  2448 1
 8975  2461  2451 1
 8976  2462  2451 1
 8977  2463  2452 1
 8978  2464  2452 1
 8979  2479  2467 1
 8980  2480  2468 1
 8981  2481  2469 1
 8982  2482  2470 1
 8983  2483  2473 1
 8984  2484  2473 1
 8985  2485  2474 1
 8986  2486  2474 1
 8987  2501  2489 1
 8988  2502  2490 1
 8989  2503  2491 1
 8990  2504  2492 1
 8991  2505  2495 1
 8992  2506  2495 1
 8993  2507  2496 1
 8994  2508  2496 1
 8995  2523  2511 1
 8996  2524  2512 1
 8997  2525  2513 1
 8998  2526  2514 1
 8999  2527  2517 1
 9000  2528  2517 1
 9001  2529  2518 1
 9002  2530  2518 1
 9003  2545  2533 1
 9004  2546  2534 1
 9005  2547  2535 1
 9006  2548  2536 1
 9007  2549  2539 1
 9008  2550  2539 1
 9009  2551  2540 1
 9010  2552  2540 1
 9011  2567  2555 1
 9012  2568  2556 1
 9013  2569  2557 1
 9014  2570  2558 1
 9015  2571  2561 1
 9016  2572  2561 1
 9017  2573  2562 1
 9018  2574  2562 1
 9019  2589  2577 1
 9020  2590  2578 1
 9021  2591  2579 1
 9022  2592  2580 1
 9023  2593  2583 1
 9024  2594  2583 1
 9025  2595  2584 1
 9026  2596  2584 1
 9027  2611  2599 1
 9028  2612  2600 1
 9029  2613  2601 1
 9030  2614  2602 1
 9031  2615  2605 1
 9032  2616  2605 1
 9033  2617  2606 1
 9034  2618  2606 1
 9035  2633  2621 1
 9036  2634  2622 1
 9037  2635  2623 1
 9038  2636  2624 1
 9039  2637  2627 1
 9040  2638  2627 1
 9041  2639  2628 1
 9042  2640  2628 1
 9043  2655  2643 1
 9044  2656  2644 1
 9045  2657  2645 1
 9046  2658  2646 1
 9047  2659  2649 1
 9048  2660  2649 1
 9049  2661  2650 1
 9050  2662  2650 1
 9051  2677  2665 1
 9052  2678  2666 1
 9053  2679  2667 1
 9054  2680  2668 1
 9055  2681  2671 1
 9056  2682  2671 1
 9057  2683  2672 1
 9058  2684  2672 1
 9059  2699  2687 1
 9060  2700  2688 1
 9061  2701  2689 1
 9062  2702  2690 1
 9063  2703  2693 1
 9064  2704  2693 1
 9065  2705  2694 1
 9066  2706  2694 1
 9067  2721  2709 1
 9068  2722  2710 1
 9069  2723  2711 1
 9070  2724  2712 1
 9071  2725  2715 1
 9072  2726  2715 1
 9073  2727  2716 1
 9074  2728  2716 1
 9075  2743  2731 1
 9076  2744  2732 1
 9077  2745  2733 1
 9078  2746  2734 1
 9079  2747  2737 1
 9080  2748  2737 1
 9081  2749  2738 1
 9082  2750  2738 1
 9083  2765  2753 1
 9084  2766  2754 1
 9085  2767  2755 1
 9086  2768  2756 1
 9087  2769  2759 1
 9088  2770  2759 1
 9089  2771  2760 1
 9090  2772  2760 1
 9091  2787  2775 1
 9092  2788  2776 1
 9093  2789  2777 1
 9094  2790  2778 1
 9095  2791  2781 1
 9096  2792  2781 1
 9097  2793  2782 1
 9098  2794  2782 1
 9099  2809  2797 1
 9100  2810  2798 1
 9101  2811  2799 1
 9102  2812  2800 1
 9103  2813  2803 1
 9104  2814  2803 1
 9105  2815  2804 1
 9106  2816  2804 1
 9107  2831  2819 1
 9108  2832  2820 1
 9109  2833  2821 1
 9110  2834  2822 1
 9111  2835  2825 1
 9112  2836  2825 1
 9113  2837  2826 1
 9114  2838  2826 1
 9115  2853  2841 1
 9116  2854  2842 1
 9117  2855  2843 1
 9118  2856  2844 1
 9119  2857  2847 1
 9120  2858  2847 1
 9121  2859  2848 1
 9122  2860  2848 1
 9123  2875  2863 1
 9124  2876  2864 1
 9125  2877  2865 1
 9126  2878  2866 1
 9127  2879  2869 1
 9128  2880  2869 1
 9129  2881  2870 1
 9130  2882  2870 1
 9131  2897  2885 1
 9132  2898  2886 1
 9133  2899  2887 1
 9134  2900  2888 1
 9135  2901  2891 1
 9136  2902  2891 1
 9137  2903  2892 1
 9138  2904  2892 1
 9139  2919  2907 1
 9140  2920  2908 1
 9141  2921  2909 1
 9142  2922  2910 1
 9143  2923  2913 1
 9144  2924  2913 1
 9145  2925  2914 1
 9146  2926  2914 1
 9147  2941  2929 1
 9148  2942  2930 1
 9149  2943  2931 1
 9150  2944  2932 1
 9151  2945  2935 1
 9152  2946  2935 1
 9153  2947  2936 1
 9154  2948  2936 1
 9155  2963  2951 1
 9156  2964  2952 1
 9157  2965  2953 1
 9158  2966  2954 1
 9159  2967  2957 1
 9160  2968  2957 1
 9161  2969  2958 1
 9162  2970  2958 1
 9163  2985  2973 1
 9164  2986  2974 1
 9165  2987  2975 1
 9166  2988  2976 1
 9167  2989  2979 1
 9168  2990  2979 1
 9169  2991  2980 1
 9170  2992  2980 1
 9171  3007  2995 1
 9172  3008  2996 1
 9173  3009  2997 1
 9174  3010  2998 1
 9175  3011  3001 1
 9176  3012  3001 1
 9177  3013  3002 1
 9178  3014  3002 1
 9179  3029  3017 1
 9180  3030  3018 1
 9181  3031  3019 1
 9182  3032  3020 1
 9183  3033  3023 1
 9184  3034  3023 1
 9185  3035  3024 1
 9186  3036  3024 1
 9187  3051  3039 1
 9188  3052  3040 1
 9189  3053  3041 1
 9190  3054  3042 1
 9191  3055  3045 1
 9192  3056  3045 1
 9193  3057  3046 1
 9194  3058  3046 1
 9195  3073  3061 1
 9196  3074  3062 1
 9197  3075  3063 1
 9198  3076  3064 1
 9199  3077  3067 1
 9200  3078  3067 1
 9201  3079  3068 1
 9202  3080  3068 1
 9203  3095  3083 1
 9204  3096  3084 1
 9205  3097  3085 1
 9206  3098  3086 1
 9207  3099  3089 1
 9208  3100  3089 1
 9209  3101  3090 1
 9210  3102  3090 1
 9211  3117  3105 1
 9212  3118  3106 1
 9213  3119  3107 1
 9214  3120  3108 1
 9215  3121  3111 1
 9216  3122  3111 1
 9217  3123  3112 1
 9218  3124  3112 1
 9219  3139  3127 1
 9220  3140  3128 1
 9221  3141  3129 1
 9222  3142  3130 1
 9223  3143  3133 1
 9224  3144  3133 1
 9225  3145  3134 1
 9226  3146  3134 1
 9227  3161  3149 1
 9228  3162  3150 1
 9229  3163  3151 1
 9230  3164  3152 1
 9231  3165  3155 1
 9232  3166  3155 1
 9233  3167  3156 1
 9234  3168  3156 1
 9235  3183  3171 1
 9236  3184  3172 1
 9237  3185  3173 1
 9238  3186  3174 1
 9239  3187  3177 1
 9240  3188  3177 1
 9241  3189  3178 1
 9242  3190  3178 1
 9243  3205  3193 1
 9244  3206  3194 1
 9245  3207  3195 1
 9246  3208  3196 1
 9247  3209  3199 1
 9248  3210  3199 1
 9249  3211  3200 1
 9250  3212  3200 1
 9251  3227  3215 1
 9252  3228  3216 1
 9253  3229  3217 1
 9254  3230  3218 1
 9255  3231  3221 1
 9256  3232  3221 1
 9257  3233  3222 1
 9258  3234  3222 1
 9259  3249  3237 1
 9260  3250  3238 1
 9261  3251  3239 1
 9262  3252  3240 1
 9263  3253  3243 1
 9264  3254  3243 1
 9265  3255  3244 1
 9266  3256  3244 1
 9267  3271  3259 1
 9268  3272  3260 1
 9269  3273  3261 1
 9270  3274  3262 1
 9271  3275  3265 1
 9272  3276  3265 1
 9273  3277  3266 1
 9274  3278  3266 1
 9275  3293  3281 1
 9276  3294  3282 1
 9277  3295  3283 1
 9278  3296  3284 1
 9279  3297  3287 1
 9280  3298  3287 1
 9281  3299  3288 1
 9282  3300  3288 1
 9283  3315  3303 1
 9284  3316  3304 1
 9285  3317  3305 1
 9286  3318  3306 1
 9287  3319  3309 1
 9288  3320  3309 1
 9289  3321  3310 1
 9290  3322  3310 1
 9291  3337  3325 1
 9292  3338  3326 1
 9293  3339  3327 1
 9294  3340  3328 1
 9295  3341  3331 1
 9296  3342  3331 1
 9297  3343  3332 1
 9298  3344  3332 1
 9299  3359  3347 1
 9300  3360  3348 1
 9301  3361  3349 1
 9302  3362  3350 1
 9303  3363  3353 1
 9304  3364  3353 1
 9305  3365  3354 1
 9306  3366  3354 1
 9307  3381  3369 1
 9308  3382  3370 1
 9309  3383  3371 1
 9310  3384  3372 1
 9311  3385  3375 1
 9312  3386  3375 1
 9313  3387  3376 1
 9314  3388  3376 1
 9315  3403  3391 1
 9316  3404  3392 1
 9317  3405  3393 1
 9318  3406  3394 1
 9319  3407  3397 1
 9320  3408  3397 1
 9321  3409  3398 1
 9322  3410  3398 1
 9323  3425  3413 1
 9324  3426  3414 1
 9325  3427  3415 1
 9326  3428  3416 1
 9327  3429  3419 1
 9328  3430  3419 1
 9329  3431  3420 1
 9330  3432  3420 1
 9331  3447  3435 1
 9332  3448  3436 1
 9333  3449  3437 1
 9334  3450  3438 1
 9335  3451  3441 1
 9336  3452  3441 1
 9337  3453  3442 1
 9338  3454  3442 1
 9339  3469  3457 1
 9340  3470  3458 1
 9341  3471  3459 1
 9342  3472  3460 1
 9343  3473  3463 1
 9344  3474  3463 1
 9345  3475  3464 1
 9346  3476  3464 1
 9347  3491  3479 1
 9348  3492  3480 1
 9349  3493  3481 1
 9350  3494  3482 1
 9351  3495  3485 1
 9352  3496  3485 1
 9353  3497  3486 1
 9354  3498  3486 1
 9355  3513  3501 1
 9356  3514  3502 1
 9357  3515  3503 1
 9358  3516  3504 1
 9359  3517  3507 1
 9360  3518  3507 1
 9361  3519  3508 1
 9362  3520  3508 1
 9363  3535  3523 1
 9364  3536  3524 1
 9365  3537  3525 1
 9366  3538  3526 1
 9367  3539  3529 1
 9368  3540  3529 1
 9369  3541  3530 1
 9370  3542  3530 1
 9371  3557  3545 1
 9372  3558  3546 1
 9373  3559  3547 1
 9374  3560  3548 1
 9375  3561  3551 1
 9376  3562  3551 1
 9377  3563  3552 1
 9378  3564  3552 1
 9379  3579  3567 1
 9380  3580  3568 1
 9381  3581  3569 1
 9382  3582  3570 1
 9383  3583  3573 1
 9384  3584  3573 1
 9385  3585  3574 1
 9386  3586  3574 1
 9387  3601  3589 1
 9388  3602  3590 1
 9389  3603  3591 1
 9390  3604  3592 1
 9391  3605  3595 1
 9392  3606  3595 1
 9393  3607  3596 1
 9394  3608  3596 1
 9395  3623  3611 1
 9396  3624  3612 1
 9397  3625  3613 1
 9398  3626  3614 1
 9399  3627  3617 1
 9400  3628  3617 1
 9401  3629  3618 1
 9402  3630  3618 1
 9403  3645  3633 1
 9404  3646  3634 1
 9405  3647  3635 1
 9406  3648  3636 1
 9407  3649  3639 1
 9408  3650  3639 1
 9409  3651  3640 1
 9410  3652  3640 1
 9411  3667  3655 1
 9412  3668  3656 1
 9413  3669  3657 1
 9414  3670  3658 1
 9415  3671  3661 1
 9416  3672  3661 1
 9417  3673  3662 1
 9418  3674  3662 1
 9419  3689  3677 1
 9420  3690  3678 1
 9421  3691  3679 1
 9422  3692  3680 1
 9423  3693  3683 1
 9424  3694  3683 1
 9425  3695  3684 1
 9426  3696  3684 1
 9427  3711  3699 1
 9428  3712  3700 1
 9429  3713  3701 1
 9430  3714  3702 1
 9431  3715  3705 1
 9432  3716  3705 1
 9433  3717  3706 1
 9434  3718  3706 1
 9435  3733  3721 1
 9436  3734  3722 1
 9437  3735  3723 1
 9438  3736  3724 1
 9439  3737  3727 1
 9440  3738  3727 1
 9441  3739  3728 1
 9442  3740  3728 1
 9443  3755  3743 1
 9444  3756  3744 1
 9445  3757  3745 1
 9446  3758  3746 1
 9447  3759  3749 1
 9448  3760  3749 1
 9449  3761  3750 1
 9450  3762  3750 1
 9451  3777  3765 1
 9452  3778  3766 1
 9453  3779  3767 1
 9454  3780  3768 1
 9455  3781  3771 1
 9456  3782  3771 1
 9457  3783  3772 1
 9458  3784  3772 1
 9459  3799  3787 1
 9460  3800  3788 1
 9461  3801  3789 1
 9462  3802  3790 1
 9463  3803  3793 1
 9464  3804  3793 1
 9465  3805  3794 1
 9466  3806  3794 1
 9467  3821  3809 1
 9468  3822  3810 1
 9469  3823  3811 1
 9470  3824  3812 1
 9471  3825  3815 1
 9472  3826  3815 1
 9473  3827  3816 1
 9474  3828  3816 1
 9475  3843  3831 1
 9476  3844  3832 1
 9477  3845  3833 1
 9478  3846  3834 1
 9479  3847  3837 1
 9480  3848  3837 1
 9481  3849  3838 1
 9482  3850  3838 1
 9483  3865  3853 1
 9484  3866  3854 1
 9485  3867  3855 1
 9486  3868  3856 1
 9487  3869  3859 1
 9488  3870  3859 1
 9489  3871  3860 1
 9490  3872  3860 1
 9491  3887  3875 1
 9492  3888  3876 1
 9493  3889  3877 1
 9494  3890  3878 1
 9495  3891  3881 1
 9496  3892  3881 1
 9497  3893  3882 1
 9498  3894  3882 1
 9499  3909  3897 1
 9500  3910  3898 1
 9501  3911  3899 1
 9502  3912  3900 1
 9503  3913  3903 1
 9504  3914  3903 1
 9505  3915  3904 1
 9506  3916  3904 1
 9507  3931  3919 1
 9508  3932  3920 1
 9509  3933  3921 1
 9510  3934  3922 1
 9511  3935  3925 1
 9512  3936  3925 1
 9513  3937  3926 1
 9514  3938  3926 1
 9515  3953  3941 1
 9516  3954  3942 1
 9517  3955  3943 1
 9518  3956  3944 1
 9519  3957  3947 1
 9520  3958  3947 1
 9521  3959  3948 1
 9522  3960  3948 1
 9523  3975  3963 1
 9524  3976  3964 1
 9525  3977  3965 1
 9526  3978  3966 1
 9527  3979  3969 1
 9528  3980  3969 1
 9529  3981  3970 1
 9530  3982  3970 1
 9531  3997  3985 1
 9532  3998  3986 1
 9533  3999  3987 1
 9534  4000  3988 1
 9535  4001  3991 1
 9536  4002  3991 1
 9537  4003  3992 1
 9538  4004  3992 1
 9539  4019  4007 1
 9540  4020  4008 1
 9541  4021  4009 1
 9542  4022  4010 1
 9543  4023  4013 1
 9544  4024  4013 1
 9545  4025  4014 1
 9546  4026  4014 1
 9547  4041  4029 1
 9548  4042  4030 1
 9549  4043  4031 1
 9550  4044  4032 1
 9551  4045  4035 1
 9552  4046  4035 1
 9553  4047  4036 1
 9554  4048  4036 1
 9555  4063  4051 1
 9556  4064  4052 1
 9557  4065  4053 1
 9558  4066  4054 1
 9559  4067  4057 1
 9560  4068  4057 1
 9561  4069  4058 1
 9562  4070  4058 1
 9563  4085  4073 1
 9564  4086  4074 1
 9565  4087  4075 1
 9566  4088  4076 1
 9567  4089  4079 1
 9568  4090  4079 1
 9569  4091  4080 1
 9570  4092  4080 1
 9571  4107  4095 1
 9572  4108  4096 1
 9573  4109  4097 1
 9574  4110  4098 1
 9575  4111  4101 1
 9576  4112  4101 1
 9577  4113  4102 1
 9578  4114  4102 1
 9579  4129  4117 1
 9580  4130  4118 1
 9581  4131  4119 1
 9582  4132  4120 1
 9583  4133  4123 1
 9584  4134  4123 1
 9585  4135  4124 1
 9586  4136  4124 1
 9587  4151  4139 1
 9588  4152  4140 1
 9589  4153  4141 1
 9590  4154  4142 1
 9591  4155  4145 1
 9592  4156  4145 1
 9593  4157  4146 1
 9594  4158  4146 1
 9595  4173  4161 1
 9596  4174  4162 1
 9597  4175  4163 1
 9598  4176  4164 1
 9599  4177  4167 1
 9600  4178  4167 1
 9601  4179  4168 1
 9602  4180  4168 1
 9603  4195  4183 1
 9604  4196  4184 1
 9605  4197  4185 1
 9606  4198  4186 1
 9607  4199  4189 1
 9608  4200  4189 1
 9609  4201  4190 1
 9610  4202  4190 1
 9611  4217  4205 1
 9612  4218  4206 1
 9613  4219  4207 1
 9614  4220  4208 1
 9615  4221  4211 1
 9616  4222  4211 1
 9617  4223  4212 1
 9618  4224  4212 1
 9619  4239  4227 1
 9620  4240  4228 1
 9621  4241  4229 1
 9622  4242  4230 1
 9623  4243  4233 1
 9624  4244  4233 1
 9625  4245  4234 1
 9626  4246  4234 1
 9627  4261  4249 1
 9628  4262  4250 1
 9629  4263  4251 1
 9630  4264  4252 1
 9631  4265  4255 1
 9632  4266  4255 1
 9633  4267  4256 1
 9634  4268  4256 1
 9635  4283  4271 1
 9636  4284  4272 1
 9637  4285  4273 1
 9638  4286  4274 1
 9639  4287  4277 1
 9640  4288  4277 1
 9641  4289  4278 1
 9642  4290  4278 1
 9643  4305  4293 1
 9644  4306  4294 1
 9645  4307  4295 1
 9646  4308  4296 1
 9647  4309  4299 1
 9648  4310  4299 1
 9649  4311  4300 1
 9650  4312  4300 1
 9651  4327  4315 1
 9652  4328  4316 1
 9653  4329  4317 1
 9654  4330  4318 1
 9655  4331  4321 1
 9656  4332  4321 1
 9657  4333  4322 1
 9658  4334  4322 1
 9659  4349  4337 1
 9660  4350  4338 1
 9661  4351  4339 1
 9662  4352  4340 1
 9663  4353  4343 1
 9664  4354  4343 1
 9665  4355  4344 1
 9666  4356  4344 1
 9667  4371  4359 1
 9668  4372  4360 1
 9669  4373  4361 1
 9670  4374  4362 1
 9671  4375  4365 1
 9672  4376  4365 1
 9673  4377  4366 1
 9674  4378  4366 1
 9675  4393  4381 1
 9676  4394  4382 1
 9677  4395  4383 1
 9678  4396  4384 1
 9679  4397  4387 1
 9680  4398  4387 1
 9681  4399  4388 1
 9682  4400  4388 1
 9683  4415  4403 1
 9684  4416  4404 1
 9685  4417  4405 1
 9686  4418  4406 1
 9687  4419  4409 1
 9688  4420  4409 1
 9689  4421  4410 1
 9690  4422  4410 1
 9691  4437  4425 1
 9692  4438  4426 1
 9693  4439  4427 1
 9694  4440  4428 1
 9695  4441  4431 1
 9696  4442  4431 1
 9697  4443  4432 1
 9698  4444  4432 1
 9699  4459  4447 1
 9700  4460  4448 1
 9701  4461  4449 1
 9702  4462  4450 1
 9703  4463  4453 1
 9704  4464  4453 1
 9705  4465  4454 1
 9706  4466  4454 1
 9707  4481  4469 1
 9708  4482  4470 1
 9709  4483  4471 1
 9710  4484  4472 1
 9711  4485  4475 1
 9712  4486  4475 1
 9713  4487  4476 1
 9714  4488  4476 1
 9715  4503  4491 1
 9716  4504  4492 1
 9717  4505  4493 1
 9718  4506  4494 1
 9719  4507  4497 1
 9720  4508  4497 1
 9721  4509  4498 1
 9722  4510  4498 1
 9723  4525  4513 1
 9724  4526  4514 1
 9725  4527  4515 1
 9726  4528  4516 1
 9727  4529  4519 1
 9728  4530  4519 1
 9729  4531  4520 1
 9730  4532  4520 1
 9731  4547  4535 1
 9732  4548  4536 1
 9733  4549  4537 1
 9734  4550  4538 1
 9735  4551  4541 1
 9736  4552  4541 1
 9737  4553  4542 1
 9738  4554  4542 1
 9739  4569  4557 1
 9740  4570  4558 1
 9741  4571  4559 1
 9742  4572  4560 1
 9743  4573  4563 1
 9744  4574  4563 1
 9745  4575  4564 1
 9746  4576  4564 1
 9747  4591  4579 1
 9748  4592  4580 1
 9749  4593  4581 1
 9750  4594  4582 1
 9751  4595  4585 1
 9752  4596  4585 1
 9753  4597  4586 1
 9754  4598  4586 1
 9755  4613  4601 1
 9756  4614  4602 1
 9757  4615  4603 1
 9758  4616  4604 1
 9759  4617  4607 1
 9760  4618  4607 1
 9761  4619  4608 1
 9762  4620  4608 1
 9763  4635  4623 1
 9764  4636  4624 1
 9765  4637  4625 1
 9766  4638  4626 1
 9767  4639  4629 1
 9768  4640  4629 1
 9769  4641  4630 1
 9770  4642  4630 1
 9771  4657  4645 1
 9772  4658  4646 1
 9773  4659  4647 1
 9774  4660  4648 1
 9775  4661  4651 1
 9776  4662  4651 1
 9777  4663  4652 1
 9778  4664  4652 1
 9779  4679  4667 1
 9780  4680  4668 1
 9781  4681  4669 1
 9782  4682  4670 1
 9783  4683  4673 1
 9784  4684  4673 1
 9785  4685  4674 1
 9786  4686  4674 1
 9787  4701  4689 1
 9788  4702  4690 1
 9789  4703  4691 1
 9790  4704  4692 1
 9791  4705  4695 1
 9792  4706  4695 1
 9793  4707  4696 1
 9794  4708  4696 1
 9795  4723  4711 1
 9796  4724  4712 1
 9797  4725  4713 1
 9798  4726  4714 1
 9799  4727  4717 1
 9800  4728  4717 1
 9801  4729  4718 1
 9802  4730  4718 1
 9803  4745  4733 1
 9804  4746  4734 1
 9805  4747  4735 1
 9806  4748  4736 1
 9807  4749  4739 1
 9808  4750  4739 1
 9809  4751  4740 1
 9810  4752  4740 1
 9811  4767  4755 1
 9812  4768  4756 1
 9813  4769  4757 1
 9814  4770  4758 1
 9815  4771  4761 1
 9816  4772  4761 1
 9817  4773  4762 1
 9818  4774  4762 1
 9819  4789  4777 1
 9820  4790  4778 1
 9821  4791  4779 1
 9822  4792  4780 1
 9823  4793  4783 1
 9824  4794  4783 1
 9825  4795  4784 1
 9826  4796  4784 1
 9827  4811  4799 1
 9828  4812  4800 1
 9829  4813  4801 1
 9830  4814  4802 1
 9831  4815  4805 1
 9832  4816  4805 1
 9833  4817  4806 1
 9834  4818  4806 1
 9835  4833  4821 1
 9836  4834  4822 1
 9837  4835  4823 1
 9838  4836  4824 1
 9839  4837  4827 1
 9840  4838  4827 1
 9841  4839  4828 1
 9842  4840  4828 1
 9843  4855  4843 1
 9844  4856  4844 1
 9845  4857  4845 1
 9846  4858  4846 1
 9847  4859  4849 1
 9848  4860  4849 1
 9849  4861  4850 1
 9850  4862  4850 1
 9851  4877  4865 1
 9852  4878  4866 1
 9853  4879  4867 1
 9854  4880  4868 1
 9855  4881  4871 1
 9856  4882  4871 1
 9857  4883  4872 1
 9858  4884  4872 1
 9859  4899  4887 1
 9860  4900  4888 1
 9861  4901  4889 1
 9862  4902  4890 1
 9863  4903  4893 1
 9864  4904  4893 1
 9865  4905  4894 1
 9866  4906  4894 1
 9867  4921  4909 1
 9868  4922  4910 1
 9869  4923  4911 1
 9870  4924  4912 1
 9871  4925  4915 1
 9872  4926  4915 1
 9873  4927  4916 1
 9874  4928  4916 1
 9875  4943  4931 1
 9876  4944  4932 1
 9877  4945  4933 1
 9878  4946  4934 1
 9879  4947  4937 1
 9880  4948  4937 1
 9881  4949  4938 1
 9882  4950  4938 1
 9883  4965  4953 1
 9884  4966  4954 1
 9885  4967  4955 1
 9886  4968  4956 1
 9887  4969  4959 1
 9888  4970  4959 1
 9889  4971  4960 1
 9890  4972  4960 1
 9891  4987  4975 1
 9892  4988  4976 1
 9893  4989  4977 1
 9894  4990  4978 1
 9895  4991  4981 1
 9896  4992  4981 1
 9897  4993  4982 1
 9898  4994  4982 1
 9899  5009  4997 1
 9900  5010  4998 1
 9901  5011  4999 1
 9902  5012  5000 1
 9903  5013  5003 1
 9904  5014  5003 1
 9905  5015  5004 1
 9906  5016  5004 1
 9907  5031  5019 1
 9908  5032  5020 1
 9909  5033  5021 1
 9910  5034  5022 1
 9911  5035  5025 1
 9912  5036  5025 1
 9913  5037  5026 1
 9914  5038  5026 1
 9915  5053  5041 1
 9916  5054  5042 1
 9917  5055  5043 1
 9918  5056  5044 1
 9919  5057  5047 1
 9920  5058  5047 1
 9921  5059  5048 1
 9922  5060  5048 1
 9923  5075  5063 1
 9924  5076  5064 1
 9925  5077  5065 1
 9926  5078  5066 1
 9927  5079  5069 1
 9928  5080  5069 1
 9929  5081  5070 1
 9930  5082  5070 1
 9931  5097  5085 1
 9932  5098  5086 1
 9933  5099  5087 1
 9934  5100  5088 1
 9935  5101  5091 1
 9936  5102  5091 1
 9937  5103  5092 1
 9938  5104  5092 1
 9939  5119  5107 1
 9940  5120  5108 1
 9941  5121  5109 1
 9942  5122  5110 1
 9943  5123  5113 1
 9944  5124  5113 1
 9945  5125  5114 1
 9946  5126  5114 1
 9947  5141  5129 1
 9948  5142  5130 1
 9949  5143  5131 1
 9950  5144  5132 1
 9951  5145  5135 1
 9952  5146  5135 1
 9953  5147  5136 1
 9954  5148  5136 1
 9955  5163  5151 1
 9956  5164  5152 1
 9957  5165  5153 1
 9958  5166  5154 1
 9959  5167  5157 1
 9960  5168  5157 1
 9961  5169  5158 1
 9962  5170  5158 1
 9963  5185  5173 1
 9964  5186  5174 1
 9965  5187  5175 1
 9966  5188  5176 1
 9967  5189  5179 1
 9968  5190  5179 1
 9969  5191  5180 1
 9970  5192  5180 1
 9971  5207  5195 1
 9972  5208  5196 1
 9973  5209  5197 1
 9974  5210  5198 1
 9975  5211  5201 1
 9976  5212  5201 1
 9977  5213  5202 1
 9978  5214  5202 1
 9979  5229  5217 1
 9980  5230  5218 1
 9981  5231  5219 1
 9982  5232  5220 1
 9983  5233  5223 1
 9984  5234  5223 1
 9985  5235  5224 1
 9986  5236  5224 1
 9987  5251  5239 1
 9988  5252  5240 1
 9989  5253  5241 1
 9990  5254  5242 1
 9991  5255  5245 1
 9992  5256  5245 1
 9993  5257  5246 1
 9994  5258  5246 1
 9995  5273  5261 1
 9996  5274  5262 1
 9997  5275  5263 1
 9998  5276  5264 1
 9999  5277  5267 1
10000  5278  5267 1
10001  5279  5268 1
10002  5280  5268 1
10003  5295  5283 1
10004  5296  5284 1
10005  5297  5285 1
10006  5298  5286 1
10007  5299  5289 1
10008  5300  5289 1
10009  5301  5290 1
10010  5302  5290 1
10011  5317  5305 1
10012  5318  5306 1
10013  5319  5307 1
10014  5320  5308 1
10015  5321  5311 1
10016  5322  5311 1
10017  5323  5312 1
10018  5324  5312 1
10019  5339  5327 1
10020  5340  5328 1
10021  5341  5329 1
10022  5342  5330 1
10023  5343  5333 1
10024  5344  5333 1
10025  5345  5334 1
10026  5346  5334 1
10027  5361  5349 1
10028  5362  5350 1
10029  5363  5351 1
10030  5364  5352 1
10031  5365  5355 1
10032  5366  5355 1
10033  5367  5356 1
10034  5368  5356 1
10035  5383  5371 1
10036  5384  5372 1
10037  5385  5373 1
10038  5386  5374 1
10039  5387  5377 1
10040  5388  5377 1
10041  5389  5378 1
10042  5390  5378 1
10043  5405  5393 1
10044  5406  5394 1
10045  5407  5395 1
10046  5408  5396 1
10047  5409  5399 1
10048  5410  5399 1
10049  5411  5400 1
10050  5412  5400 1
10051  5427  5415 1
10052  5428  5416 1
10053  5429  5417 1
10054  5430  5418 1
10055  5431  5421 1
10056  5432  5421 1
10057  5433  5422 1
10058  5434  5422 1
10059  5449  5437 1
10060  5450  5438 1
10061  5451  5439 1
10062  5452  5440 1
10063  5453  5443 1
10064  5454  5443 1
10065  5455  5444 1
10066  5456  5444 1
10067  5471  5459 1
10068  5472  5460 1
10069  5473  5461 1
10070  5474  5462 1
10071  5475  5465 1
10072  5476  5465 1
10073  5477  5466 1
10074  5478  5466 1
10075  5493  5481 1
10076  5494  5482 1
10077  5495  5483 1
10078  5496  5484 1
10079  5497  5487 1
10080  5498  5487 1
10081  5499  5488 1
10082  5500  5488 1
10083  5515  5503 1
10084  5516  5504 1
10085  5517  5505 1
10086  5518  5506 1
10087  5519  5509 1
10088  5520  5509 1
10089  5521  5510 1
10090  5522  5510 1
10091  5537  5525 1
10092  5538  5526 1
10093  5539  5527 1
10094  5540  5528 1
10095  5541  5531 1
10096  5542  5531 1
10097  5543  5532 1
10098  5544  5532 1
10099  5559  5547 1
10100  5560  5548 1
10101  5561  5549 1
10102  5562  5550 1
10103  5563  5553 1
10104  5564  5553 1
10105  5565  5554 1
10106  5566  5554 1
10107  5581  5569 1
10108  5582  5570 1
10109  5583  5571 1
10110  5584  5572 1
10111  5585  5575 1
10112  5586  5575 1
10113  5587  5576 1
10114  5588  5576 1
10115  5603  5591 1
10116  5604  5592 1
10117  5605  5593 1
10118  5606  5594 1
10119  5607  5597 1
10120  5608  5597 1
10121  5609  5598 1
10122  5610  5598 1
10123  5625  5613 1
10124  5626  5614 1
10125  5627  5615 1
10126  5628  5616 1
10127  5629  5619 1
10128  5630  5619 1
10129  5631  5620 1
10130  5632  5620 1
10131  5647  5635 1
10132  5648  5636 1
10133  5649  5637 1
10134  5650  5638 1
10135  5651  5641 1
10136  5652  5641 1
10137  5653  5642 1
10138  5654  5642 1
10139  5669  5657 1
10140  5670  5658 1
10141  5671  5659 1
10142  5672  5660 1
10143  5673  5663 1
10144  5674  5663 1
10145  5675  5664 1
10146  5676  5664 1
10147  5691  5679 1
10148  5692  5680 1
10149  5693  5681 1
10150  5694  5682 1
10151  5695  5685 1
10152  5696  5685 1
10153  5697  5686 1
10154  5698  5686 1
10155  5713  5701 1
10156  5714  5702 1
10157  5715  5703 1
10158  5716  5704 1
10159  5717  5707 1
10160  5718  5707 1
10161  5719  5708 1
10162  5720  5708 1
10163  5735  5723 1
10164  5736  5724 1
10165  5737  5725 1
10166  5738  5726 1
10167  5739  5729 1
10168  5740  5729 1
10169  5741  5730 1
10170  5742  5730 1
10171  5757  5745 1
10172  5758  5746 1
10173  5759  5747 1
10174  5760  5748 1
10175  5761  5751 1
10176  5762  5751 1
10177  5763  5752 1
10178  5764  5752 1
10179  5779  5767 1
10180  5780  5768 1
10181  5781  5769 1
10182  5782  5770 1
10183  5783  5773 1
10184  5784  5773 1
10185  5785  5774 1
10186  5786  5774 1
10187  5801  5789 1
10188  5802  5790 1
10189  5803  5791 1
10190  5804  5792 1
10191  5805  5795 1
10192  5806  5795 1
10193  5807  5796 1
10194  5808  5796 1
10195  5823  5811 1
10196  5824  5812 1
10197  5825  5813 1
10198  5826  5814 1
10199  5827  5817 1
10200  5828  5817 1
10201  5829  5818 1
10202  5830  5818 1
10203  5845  5833 1
10204  5846  5834 1
10205  5847  5835 1
10206  5848  5836 1
10207  5849  5839 1
10208  5850  5839 1
10209  5851  5840 1
10210  5852  5840 1
10211  5867  5855 1
10212  5868  5856 1
10213  5869  5857 1
10214  5870  5858 1
10215  5871  5861 1
10216  5872  5861 1
10217  5873  5862 1
10218  5874  5862 1
10219  5889  5877 1
10220  5890  5878 1
10221  5891  5879 1
10222  5892  5880 1
10223  5893  5883 1
10224  5894  5883 1
10225  5895  5884 1
10226  5896  5884 1
10227  5911  5899 1
10228  5912  5900 1
10229  5913  5901 1
10230  5914  5902 1
10231  5915  5905 1
10232  5916  5905 1
10233  5917  5906 1
10234  5918  5906 1
10235  5933  5921 1
10236  5934  5922 1
10237  5935  5923 1
10238  5936  5924 1
10239  5937  5927 1
10240  5938  5927 1
10241  5939  5928 1
10242  5940  5928 1
10243  5955  5943 1
10244  5956  5944 1
10245  5957  5945 1
10246  5958  5946 1
10247  5959  5949 1
10248  5960  5949 1
10249  5961  5950 1
10250  5962  5950 1
10251  5977  5965 1
10252  5978  5966 1
10253  5979  5967 1
10254  5980  5968 1
10255  5981  5971 1
10256  5982  5971 1
10257  5983  5972 1
10258  5984  5972 1
10259  5999  5987 1
10260  6000  5988 1
10261  6001  5989 1
10262  6002  5990 1
10263  6003  5993 1
10264  6004  5993 1
10265  6005  5994 1
10266  6006  5994 1
10267  6021  6009 1
10268  6022  6010 1
10269  6023  6011 1
10270  6024  6012 1
10271  6025  6015 1
10272  6026  6015 1
10273  6027  6016 1
10274  6028  6016 1
10275  6043  6031 1
10276  6044  6032 1
10277  6045  6033 1
10278  6046  6034 1
10279  6047  6037 1
10280  6048  6037 1
10281  6049  6038 1
10282  6050  6038 1
10283  6065  6053 1
10284  6066  6054 1
10285  6067  6055 1
10286  6068  6056 1
10287  6069  6059 1
10288  6070  6059 1
10289  6071  6060 1
10290  6072  6060 1
10291  6087  6075 1
10292  6088  6076 1
10293  6089  6077 1
10294  6090  6078 1
10295  6091  6081 1
10296  6092  6081 1
10297  6093  6082 1
10298  6094  6082 1
10299  6109  6097 1
10300  6110  6098 1
10301  6111  6099 1
10302  6112  6100 1
10303  6113  6103 1
10304  6114  6103 1
10305  6115  6104 1
10306  6116  6104 1
10307  6131  6119 1
10308  6132  6120 1
10309  6133  6121 1
10310  6134  6122 1
10311  6135  6125 1
10312  6136  6125 1
10313  6137  6126 1
10314  6138  6126 1
10315  6153  6141 1
10316  6154  6142 1
10317  6155  6143 1
10318  6156  6144 1
10319  6157  6147 1
10320  6158  6147 1
10321  6159  6148 1
10322  6160  6148 1
10323  6175  6163 1
10324  6176  6164 1
10325  6177  6165 1
10326  6178  6166 1
10327  6179  6169 1
10328  6180  6169 1
10329  6181  6170 1
10330  6182  6170 1
10331  6197  6185 1
10332  6198  6186 1
10333  6199  6187 1
10334  6200  6188 1
10335  6201  6191 1
10336  6202  6191 1
10337  6203  6192 1
10338  6204  6192 1
10339  6219  6207 1
10340  6220  6208 1
10341  6221  6209 1
10342  6222  6210 1
10343  6223  6213 1
10344  6224  6213 1
10345  6225  6214 1
10346  6226  6214 1
10347  6241  6229 1
10348  6242  6230 1
10349  6243  6231 1
10350  6244  6232 1
10351  6245  6235 1
10352  6246  6235 1
10353  6247  6236 1
10354  6248  6236 1
10355  6263  6251 1
10356  6264  6252 1
10357  6265  6253 1
10358  6266  6254 1
10359  6267  6257 1
10360  6268  6257 1
10361  6269  6258 1
10362  6270  6258 1
10363  6285  6273 1
10364  6286  6274 1
10365  6287  6275 1
10366  6288  6276 1
10367  6289  6279 1
10368  6290  6279 1
10369  6291  6280 1
10370  6292  6280 1
10371  6307  6295 1
10372  6308  6296 1
10373  6309  6297 1
10374  6310  6298 1
10375  6311  6301 1
10376  6312  6301 1
10377  6313  6302 1
10378  6314  6302 1
10379  6329  6317 1
10380  6330  6318 1
10381  6331  6319 1
10382  6332  6320 1
10383  6333  6323 1
10384  6334  6323 1
10385  6335  6324 1
10386  6336  6324 1
10387  6351  6339 1
10388  6352  6340 1
10389  6353  6341 1
10390  6354  6342 1
10391  6355  6345 1
10392  6356  6345 1
10393  6357  6346 1
10394  6358  6346 1
10395  6373  6361 1
10396  6374  6362 1
10397  6375  6363 1
10398  6376  6364 1
10399  6377  6367 1
10400  6378  6367 1
10401  6379  6368 1
10402  6380  6368 1
10403  6395  6383 1
10404  6396  6384 1
10405  6397  6385 1
10406  6398  6386 1
10407  6399  6389 1
10408  6400  6389 1
10409  6401  6390 1
10410  6402  6390 1
10411  6417  6405 1
10412  6418  6406 1
10413  6419  6407 1
10414  6420  6408 1
10415  6421  6411 1
10416  6422  6411 1
10417  6423  6412 1
10418  6424  6412 1
10419  6439  6427 1
10420  6440  6428 1
10421  6441  6429 1
10422  6442  6430 1
10423  6443  6433 1
10424  6444  6433 1
10425  6445  6434 1
10426  6446  6434 1
10427  6461  6449 1
10428  6462  6450 1
10429  6463  6451 1
10430  6464  6452 1
10431  6465  6455 1
10432  6466  6455 1
10433  6467  6456 1
10434  6468  6456 1
10435  6483  6471 1
10436  6484  6472 1
10437  6485  6473 1
10438  6486  6474 1
10439  6487  6477 1
10440  6488  6477 1
10441  6489  6478 1
10442  6490  6478 1
10443  6505  6493 1
10444  6506  6494 1
10445  6507  6495 1
10446  6508  6496 1
10447  6509  6499 1
10448  6510  6499 1
10449  6511  6500 1
10450  6512  6500 1
10451  6527  6515 1
10452  6528  6516 1
10453  6529  6517 1
10454  6530  6518 1
10455  6531  6521 1
10456  6532  6521 1
10457  6533  6522 1
10458  6534  6522 1
10459  6549  6537 1
10460  6550  6538 1
10461  6551  6539 1
10462  6552  6540 1
10463  6553  6543 1
10464  6554  6543 1
10465  6555  6544 1
10466  6556  6544 1
10467  6571  6559 1
10468  6572  6560 1
10469  6573  6561 1
10470  6574  6562 1
10471  6575  6565 1
10472  6576  6565 1
10473  6577  6566 1
10474  6578  6566 1
10475  6593  6581 1
10476  6594  6582 1
10477  6595  6583 1
10478  6596  6584 1
10479  6597  6587 1
10480  6598  6587 1
10481  6599  6588 1
10482  6600  6588 1
10483  6615  6603 1
10484  6616  6604 1
10485  6617  6605 1
10486  6618  6606 1
10487  6619  6609 1
10488  6620  6609 1
10489  6621  6610 1
10490  6622  6610 1
10491  6637  6625 1
10492  6638  6626 1
10493  6639  6627 1
10494  6640  6628 1
10495  6641  6631 1
10496  6642  6631 1
10497  6643  6632 1
10498  6644  6632 1
10499  6659  6647 1
10500  6660  6648 1
10501  6661  6649 1
10502  6662  6650 1
10503  6663  6653 1
10504  6664  6653 1
10505  6665  6654 1
10506  6666  6654 1
10507  6681  6669 1
10508  6682  6670 1
10509  6683  6671 1
10510  6684  6672 1
10511  6685  6675 1
10512  6686  6675 1
10513  6687  6676 1
10514  6688  6676 1
10515  6703  6691 1
10516  6704  6692 1
10517  6705  6693 1
10518  6706  6694 1
10519  6707  6697 1
10520  6708  6697 1
10521  6709  6698 1
10522  6710  6698 1
10523  6725  6713 1
10524  6726  6714 1
10525  6727  6715 1
10526  6728  6716 1
10527  6729  6719 1
10528  6730  6719 1
10529  6731  6720 1
10530  6732  6720 1
10531  6747  6735 1
10532  6748  6736 1
10533  6749  6737 1
10534  6750  6738 1
10535  6751  6741 1
10536  6752  6741 1
10537  6753  6742 1
10538  6754  6742 1
10539  6769  6757 1
10540  6770  6758 1
10541  6771  6759 1
10542  6772  6760 1
10543  6773  6763 1
10544  6774  6763 1
10545  6775  6764 1
10546  6776  6764 1
10547  6791  6779 1
10548  6792  6780 1
10549  6793  6781 1
10550  6794  6782 1
10551  6795  6785 1
10552  6796  6785 1
10553  6797  6786 1
10554  6798  6786 1
10555  6813  6801 1
10556  6814  6802 1
10557  6815  6803 1
10558  6816  6804 1
10559  6817  6807 1
10560  6818  6807 1
10561  6819  6808 1
10562  6820  6808 1
10563  6835  6823 1
10564  6836  6824 1
10565  6837  6825 1
10566  6838  6826 1
10567  6839  6829 1
10568  6840  6829 1
10569  6841  6830 1
10570  6842  6830 1
10571  6857  6845 1
10572  6858  6846 1
10573  6859  6847 1
10574  6860  6848 1
10575  6861  6851 1
10576  6862  6851 1
10577  6863  6852 1
10578  6864  6852 1
10579  6879  6867 1
10580  6880  6868 1
10581  6881  6869 1
10582  6882  6870 1
10583  6883  6873 1
10584  6884  6873 1
10585  6885  6874 1
10586  6886  6874 1
10587  6901  6889 1
10588  6902  6890 1
10589  6903  6891 1
10590  6904  6892 1
10591  6905  6895 1
10592  6906  6895 1
10593  6907  6896 1
10594  6908  6896 1
10595  6923  6911 1
10596  6924  6912 1
10597  6925  6913 1
10598  6926  6914 1
10599  6927  6917 1
10600  6928  6917 1
10601  6929  6918 1
10602  6930  6918 1
10603  6945  6933 1
10604  6946  6934 1
10605  6947  6935 1
10606  6948  6936 1
10607  6949  6939 1
10608  6950  6939 1
10609  6951  6940 1
10610  6952  6940 1
10611  6967  6955 1
10612  6968  6956 1
10613  6969  6957 1
10614  6970  6958 1
10615  6971  6961 1
10616  6972  6961 1
10617  6973  6962 1
10618  6974  6962 1
10619  6989  6977 1
10620  6990  6978 1
10621  6991  6979 1
10622  6992  6980 1
10623  6993  6983 1
10624  6994  6983 1
10625  6995  6984 1
10626  6996  6984 1
10627  7011  6999 1
10628  7012  7000 1
10629  7013  7001 1
10630  7014  7002 1
10631  7015  7005 1
10632  7016  7005 1
10633  7017  7006 1
10634  7018  7006 1
10635  7033  7021 1
10636  7034  7022 1
10637  7035  7023 1
10638  7036  7024 1
10639  7037  7027 1
10640  7038  7027 1
10641  7039  7028 1
10642  7040  7028 1
10643  7055  7043 1
10644  7056  7044 1
10645  7057  7045 1
10646  7058  7046 1
10647  7059  7049 1
10648  7060  7049 1
10649  7061  7050 1
10650  7062  7050 1
10651  7077  7065 1
10652  7078  7066 1
10653  7079  7067 1
10654  7080  7068 1
10655  7081  7071 1
10656  7082  7071 1
10657  7083  7072 1
10658  7084  7072 1
10659  7099  7087 1
10660  7100  7088 1
10661  7101  7089 1
10662  7102  7090 1
10663  7103  7093 1
10664  7104  7093 1
10665  7105  7094 1
10666  7106  7094 1
10667  7121  7109 1
10668  7122  7110 1
10669  7123  7111 1
10670  7124  7112 1
10671  7125  7115 1
10672  7126  7115 1
10673  7127  7116 1
10674  7128  7116 1
10675  7143  7131 1
10676  7144  7132 1
10677  7145  7133 1
10678  7146  7134 1
10679  7147  7137 1
10680  7148  7137 1
10681  7149  7138 1
10682  7150  7138 1
10683  7165  7153 1
10684  7166  7154 1
10685  7167  7155 1
10686  7168  7156 1
10687  7169  7159 1
10688  7170  7159 1
10689  7171  7160 1
10690  7172  7160 1
10691  7187  7175 1
10692  7188  7176 1
10693  7189  7177 1
10694  7190  7178 1
10695  7191  7181 1
10696  7192  7181 1
10697  7193  7182 1
10698  7194  7182 1
10699  7209  7197 1
10700  7210  7198 1
10701  7211  7199 1
10702  7212  7200 1
10703  7213  7203 1
10704  7214  7203 1
10705  7215  7204 1
10706  7216  7204 1
10707  7231  7219 1
10708  7232  7220 1
10709  7233  7221 1
10710  7234  7222 1
10711  7235  7225 1
10712  7236  7225 1
10713  7237  7226 1
10714  7238  7226 1
10715  7253  7241 1
10716  7254  7242 1
10717  7255  7243 1
10718  7256  7244 1
10719  7257  7247 1
10720  7258  7247 1
10721  7259  7248 1
10722  7260  7248 1
10723  7275  7263 1
10724  7276  7264 1
10725  7277  7265 1
10726  7278  7266 1
10727  7279  7269 1
10728  7280  7269 1
10729  7281  7270 1
10730  7282  7270 1
10731  7297  7285 1
10732  7298  7286 1
10733  7299  7287 1
10734  7300  7288 1
10735  7301  7291 1
10736  7302  7291 1
10737  7303  7292 1
10738  7304  7292 1
10739  7319  7307 1
10740  7320  7308 1
10741  7321  7309 1
10742  7322  7310 1
10743  7323  7313 1
10744  7324  7313 1
10745  7325  7314 1
10746  7326  7314 1
10747  7341  7329 1
10748  7342  7330 1
10749  7343  7331 1
10750  7344  7332 1
10751  7345  7335 1
10752  7346  7335 1
10753  7347  7336 1
10754  7348  7336 1
10755  7363  7351 1
10756  7364  7352 1
10757  7365  7353 1
10758  7366  7354 1
10759  7367  7357 1
10760  7368  7357 1
10761  7369  7358 1
10762  7370  7358 1
10763  7385  7373 1
10764  7386  7374 1
10765  7387  7375 1
10766  7388  7376 1
10767  7389  7379 1
10768  7390  7379 1
10769  7391  7380 1
10770  7392  7380 1
10771  7407  7395 1
10772  7408  7396 1
10773  7409  7397 1
10774  7410  7398 1
10775  7411  7401 1
10776  7412  7401 1
10777  7413  7402 1
10778  7414  7402 1
10779  7429  7417 1
10780  7430  7418 1
10781  7431  7419 1
10782  7432  7420 1
10783  7433  7423 1
10784  7434  7423 1
10785  7435  7424 1
10786  7436  7424 1
10787  7451  7439 1
10788  7452  7440 1
10789  7453  7441 1
10790  7454  7442 1
10791  7455  7445 1
10792  7456  7445 1
10793  7457  7446 1
10794  7458  7446 1
10795  7473  7461 1
10796  7474  7462 1
10797  7475  7463 1
10798  7476  7464 1
10799  7477  7467 1
10800  7478  7467 1
10801  7479  7468 1
10802  7480  7468 1
10803  7495  7483 1
10804  7496  7484 1
10805  7497  7485 1
10806  7498  7486 1
10807  7499  7489 1
10808  7500  7489 1
10809  7501  7490 1
10810  7502  7490 1
10811  7517  7505 1
10812  7518  7506 1
10813  7519  7507 1
10814  7520  7508 1
10815  7521  7511 1
10816  7522  7511 1
10817  7523  7512 1
10818  7524  7512 1
10819  7539  7527 1
10820  7540  7528 1
10821  7541  7529 1
10822  7542  7530 1
10823  7543  7533 1
10824  7544  7533 1
10825  7545  7534 1
10826  7546  7534 1
10827  7561  7549 1
10828  7562  7550 1
10829  7563  7551 1
10830  7564  7552 1
10831  7565  7555 1
10832  7566  7555 1
10833  7567  7556 1
10834  7568  7556 1
10835  7583  7571 1
10836  7584  7572 1
10837  7585  7573 1
10838  7586  7574 1
10839  7587  7577 1
10840  7588  7577 1
10841  7589  7578 1
10842  7590  7578 1
10843  7605  7593 1
10844  7606  7594 1
10845  7607  7595 1
10846  7608  7596 1
10847  7609  7599 1
10848  7610  7599 1
10849  7611  7600 1
10850  7612  7600 1
10851  7627  7615 1
10852  7628  7616 1
10853  7629  7617 1
10854  7630  7618 1
10855  7631  7621 1
10856  7632  7621 1
10857  7633  7622 1
10858  7634  7622 1
10859  7649  7637 1
10860  7650  7638 1
10861  7651  7639 1
10862  7652  7640 1
10863  7653  7643 1
10864  7654  7643 1
10865  7655  7644 1
10866  7656  7644 1
10867  7671  7659 1
10868  7672  7660 1
10869  7673  7661 1
10870  7674  7662 1
10871  7675  7665 1
10872  7676  7665 1
10873  7677  7666 1
10874  7678  7666 1
10875  7693  7681 1
10876  7694  7682 1
10877  7695  7683 1
10878  7696  7684 1
10879  7697  7687 1
10880  7698  7687 1
10881  7699  7688 1
10882  7700  7688 1
10883  7715  7703 1
10884  7716  7704 1
10885  7717  7705 1
10886  7718  7706 1
10887  7719  7709 1
10888  7720  7709 1
10889  7721  7710 1
10890  7722  7710 1
10891  7737  7725 1
10892  7738  7726 1
10893  7739  7727 1
10894  7740  7728 1
10895  7741  7731 1
10896  7742  7731 1
10897  7743  7732 1
10898  7744  7732 1
10899  7759  7747 1
10900  7760  7748 1
10901  7761  7749 1
10902  7762  7750 1
10903  7763  7753 1
10904  7764  7753 1
10905  7765  7754 1
10906  7766  7754 1
10907  7781  7769 1
10908  7782  7770 1
10909  7783  7771 1
10910  7784  7772 1
10911  7785  7775 1
10912  7786  7775 1
10913  7787  7776 1
10914  7788  7776 1
10915  7803  7791 1
10916  7804  7792 1
10917  7805  7793 1
10918  7806  7794 1
10919  7807  7797 1
10920  7808  7797 1
10921  7809  7798 1
10922  7810  7798 1
10923  7825  7813 1
10924  7826  7814 1
10925  7827  7815 1
10926  7828  7816 1
10927  7829  7819 1
10928  7830  7819 1
10929  7831  7820 1
10930  7832  7820 1
10931  7847  7835 1
10932  7848  7836 1
10933  7849  7837 1
10934  7850  7838 1
10935  7851  7841 1
10936  7852  7841 1
10937  7853  7842 1
10938  7854  7842 1
10939  7869  7857 1
10940  7870  7858 1
10941  7871  7859 1
10942  7872  7860 1
10943  7873  7863 1
10944  7874  7863 1
10945  7875  7864 1
10946  7876  7864 1
10947  7891  7879 1
10948  7892  7880 1
10949  7893  7881 1
10950  7894  7882 1
10951  7895  7885 1
10952  7896  7885 1
10953  7897  7886 1
10954  7898  7886 1
10955  7913  7901 1
10956  7914  7902 1
10957  7915  7903 1
10958  7916  7904 1
10959  7917  7907 1
10960  7918  7907 1
10961  7919  7908 1
10962  7920  7908 1
10963  7935  7923 1
10964  7936  7924 1
10965  7937  7925 1
10966  7938  7926 1
10967  7939  7929 1
10968  7940  7929 1
10969  7941  7930 1
10970  7942  7930 1
10971  7957  7945 1
10972  7958  7946 1
10973  7959  7947 1
10974  7960  7948 1
10975  7961  7951 1
10976  7962  7951 1
10977  7963  7952 1
10978  7964  7952 1
10979  7979  7967 1
10980  7980  7968 1
10981  7981  7969 1
10982  7982  7970 1
10983  7983  7973 1
10984  7984  7973 1
10985  7985  7974 1
10986  7986  7974 1
10987  8001  7989 1
10988  8002  7990 1
10989  8003  7991 1
10990  8004  7992 1
10991  8005  7995 1
10992  8006  7995 1
10993  8007  7996 1
10994  8008  7996 1
10995  8023  8011 1
10996  8024  8012 1
10997  8025  8013 1
10998  8026  8014 1
10999  8027  8017 1
11000  8028  8017 1
11001  8029  8018 1
11002  8030  8018 1
11003  8045  8033 1
11004  8046  8034 1
11005  8047  8035 1
11006  8048  8036 1
11007  8049  8039 1
11008  8050  8039 1
11009  8051  8040 1
11010  8052  8040 1
11011  8067  8055 1
11012  8068  8056 1
11013  8069  8057 1
11014  8070  8058 1
11015  8071  8061 1
11016  8072  8061 1
11017  8073  8062 1
11018  8074  8062 1
11019  8089  8077 1
11020  8090  8078 1
11021  8091  8079 1
11022  8092  8080 1
11023  8093  8083 1
11024  8094  8083 1
11025  8095  8084 1
11026  8096  8084 1
11027  8111  8099 1
11028  8112  8100 1
11029  8113  8101 1
11030  8114  8102 1
11031  8115  8105 1
11032  8116  8105 1
11033  8117  8106 1
11034  8118  8106 1
11035  8133  8121 1
11036  8134  8122 1
11037  8135  8123 1
11038  8136  8124 1
11039  8137  8127 1
11040  8138  8127 1
11041  8139  8128 1
11042  8140  8128 1
11043  8155  8143 1
11044  8156  8144 1
11045  8157  8145 1
11046  8158  8146 1
11047  8159  8149 1
11048  8160  8149 1
11049  8161  8150 1
11050  8162  8150 1
11051  8177  8165 1
11052  8178  8166 1
11053  8179  8167 1
11054  8180  8168 1
11055  8181  8171 1
11056  8182  8171 1
11057  8183  8172 1
11058  8184  8172 1
11059  8199  8187 1
11060  8200  8188 1
11061  8201  8189 1
11062  8202  8190 1
11063  8203  8193 1
11064  8204  8193 1
11065  8205  8194 1
11066  8206  8194 1
11067  8221  8209 1
11068  8222  8210 1
11069  8223  8211 1
11070  8224  8212 1
11071  8225  8215 1
11072  8226  8215 1
11073  8227  8216 1
11074  8228  8216 1
11075  8243  8231 1
11076  8244  8232 1
11077  8245  8233 1
11078  8246  8234 1
11079  8247  8237 1
11080  8248  8237 1
11081  8249  8238 1
11082  8250  8238 1
11083  8265  8253 1
11084  8266  8254 1
11085  8267  8255 1
11086  8268  8256 1
11087  8269  8259 1
11088  8270  8259 1
11089  8271  8260 1
11090  8272  8260 1
11091  8287  8275 1
11092  8288  8276 1
11093  8289  8277 1
11094  8290  8278 1
11095  8291  8281 1
11096  8292  8281 1
11097  8293  8282 1
11098  8294  8282 1
11099  8309  8297 1
11100  8310  8298 1
11101  8311  8299 1
11102  8312  8300 1
11103  8313  8303 1
11104  8314  8303 1
11105  8315  8304 1
11106  8316  8304 1
11107  8331  8319 1
11108  8332  8320 1
11109  8333  8321 1
11110  8334  8322 1
11111  8335  8325 1
11112  8336  8325 1
11113  8337  8326 1
11114  8338  8326 1
11115  8353  8341 1
11116  8354  8342 1
11117  8355  8343 1
11118  8356  8344 1
11119  8357  8347 1
11120  8358  8347 1
11121  8359  8348 1
11122  8360  8348 1
11123  8375  8363 1
11124  8376  8364 1
11125  8377  8365 1
11126  8378  8366 1
11127  8379  8369 1
11128  8380  8369 1
11129  8381  8370 1
11130  8382  8370 1
11131  8397  8385 1
11132  8398  8386 1
11133  8399  8387 1
11134  8400  8388 1
11135  8401  8391 1
11136  8402  8391 1
11137  8403  8392 1
11138  8404  8392 1
11139  8419  8407 1
11140  8420  8408 1
11141  8421  8409 1
11142  8422  8410 1
11143  8423  8413 1
11144  8424  8413 1
11145  8425  8414 1
11146  8426  8414 1
11147  8441  8429 1
11148  8442  8430 1
11149  8443  8431 1
11150  8444  8432 1
11151  8445  8435 1
11152  8446  8435 1
11153  8447  8436 1
11154  8448  8436 1
11155  8463  8451 1
11156  8464  8452 1
11157  8465  8453 1
11158  8466  8454 1
11159  8467  8457 1
11160  8468  8457 1
11161  8469  8458 1
11162  8470  8458 1
11163  8485  8473 1
11164  8486  8474 1
11165  8487  8475 1
11166  8488  8476 1
11167  8489  8479 1
11168  8490  8479 1
11169  8491  8480 1
11170  8492  8480 1
11171  8507  8495 1
11172  8508  8496 1
11173  8509  8497 1
11174  8510  8498 1
11175  8511  8501 1
11176  8512  8501 1
11177  8513  8502 1
11178  8514  8502 1
11179  8529  8517 1
11180  8530  8518 1
11181  8531  8519 1
11182  8532  8520 1
11183  8533  8523 1
11184  8534  8523 1
11185  8535  8524 1
11186  8536  8524 1
11187  8551  8539 1
11188  8552  8540 1
11189  8553  8541 1
11190  8554  8542 1
11191  8555  8545 1
11192  8556  8545 1
11193  8557  8546 1
11194  8558  8546 1
11195  8573  8561 1
11196  8574  8562 1
11197  8575  8563 1
11198  8576  8564 1
11199  8577  8567 1
11200  8578  8567 1
11201  8579  8568 1
11202  8580  8568 1
11203  8595  8583 1
11204  8596  8584 1
11205  8597  8585 1
11206  8598  8586 1
11207  8599  8589 1
11208  8600  8589 1
11209  8601  8590 1
11210  8602  8590 1
11211  8617  8605 1
11212  8618  8606 1
11213  8619  8607 1
11214  8620  8608 1
11215  8621  8611 1
11216  8622  8611 1
11217  8623  8612 1
11218  8624  8612 1
11219  8639  8627 1
11220  8640  8628 1
11221  8641  8629 1
11222  8642  8630 1
11223  8643  8633 1
11224  8644  8633 1
11225  8645  8634 1
11226  8646  8634 1
11227  8661  8649 1
11228  8662  8650 1
11229  8663  8651 1
11230  8664  8652 1
11231  8665  8655 1
11232  8666  8655 1
11233  8667  8656 1
11234  8668  8656 1
11235  8683  8671 1
11236  8684  8672 1
11237  8685  8673 1
11238  8686  8674 1
11239  8687  8677 1
11240  8688  8677 1
11241  8689  8678 1
11242  8690  8678 1
11243  8705  8693 1
11244  8706  8694 1
11245  8707  8695 1
11246  8708  8696 1
11247  8709  8699 1
11248  8710  8699 1
11249  8711  8700 1
11250  8712  8700 1
11251  8727  8715 1
11252  8728  8716 1
11253  8729  8717 1
11254  8730  8718 1
11255  8731  8721 1
11256  8732  8721 1
11257  8733  8722 1
11258  8734  8722 1
11259  8749  8737 1
11260  8750  8738 1
11261  8751  8739 1
11262  8752  8740 1
11263  8753  8743 1
11264  8754  8743 1
11265  8755  8744 1
11266  8756  8744 1
11267  8771  8759 1
11268  8772  8760 1
11269  8773  8761 1
11270  8774  8762 1
11271  8775  8765 1
11272  8776  8765 1
11273  8777  8766 1
11274  8778  8766 1
11275  8793  8781 1
11276  8794  8782 1
11277  8795  8783 1
11278  8796  8784 1
11279  8797  8787 1
11280  8798  8787 1
11281  8799  8788 1
11282  8800  8788 1
11283  8815  8803 1
11284  8816  8804 1
11285  8817  8805 1
11286  8818  8806 1
11287  8819  8809 1
11288  8820  8809 1
11289  8821  8810 1
11290  8822  8810 1
11291  8837  8825 1
11292  8838  8826 1
11293  8839  8827 1
11294  8840  8828 1
11295  8841  8831 1
11296  8842  8831 1
11297  8843  8832 1
11298  8844  8832 1
11299  8859  8847 1
11300  8860  8848 1
11301  8861  8849 1
11302  8862  8850 1
11303  8863  8853 1
11304  8864  8853 1
11305  8865  8854 1
11306  8866  8854 1
11307  8881  8869 1
11308  8882  8870 1
11309  8883  8871 1
11310  8884  8872 1
11311  8885  8875 1
11312  8886  8875 1
11313  8887  8876 1
11314  8888  8876 1
11315  8903  8891 1
11316  8904  8892 1
11317  8905  8893 1
11318  8906  8894 1
11319  8907  8897 1
11320  8908  8897 1
11321  8909  8898 1
11322  8910  8898 1
11323  8925  8913 1
11324  8926  8914 1
11325  8927  8915 1
11326  8928  8916 1
11327  8929  8919 1
11328  8930  8919 1
11329  8931  8920 1
11330  8932  8920 1
11331  8947  8935 1
11332  8948  8936 1
11333  8949  8937 1
11334  8950  8938 1
11335  8951  8941 1
11336  8952  8941 1
11337  8953  8942 1
11338  8954  8942 1
11339  8969  8957 1
11340  8970  8958 1
11341  8971  8959 1
11342  8972  8960 1
11343  8973  8963 1
11344  8974  8963 1
11345  8975  8964 1
11346  8976  8964 1
11347  8991  8979 1
11348  8992  8980 1
11349  8993  8981 1
11350  8994  8982 1
11351  8995  8985 1
11352  8996  8985 1
11353  8997  8986 1
11354  8998  8986 1
11355  9013  9001 1
11356  9014  9002 1
11357  9015  9003 1
11358  9016  9004 1
11359  9017  9007 1
11360  9018  9007 1
11361  9019  9008 1
11362  9020  9008 1
11363  9035  9023 1
11364  9036  9024 1
11365  9037  9025 1
11366  9038  9026 1
11367  9039  9029 1
11368  9040  9029 1
11369  9041  9030 1
11370  9042  9030 1
11371  9057  9045 1
11372  9058  9046 1
11373  9059  9047 1
11374  9060  9048 1
11375  9061  9051 1
11376  9062  9051 1
11377  9063  9052 1
11378  9064  9052 1
11379  9079  9067 1
11380  9080  9068 1
11381  9081  9069 1
11382  9082  9070 1
11383  9083  9073 1
11384  9084  9073 1
11385  9085  9074 1
11386  9086  9074 1
11387  9101  9089 1
11388  9102  9090 1
11389  9103  9091 1
11390  9104  9092 1
11391  9105  9095 1
11392  9106  9095 1
11393  9107  9096 1
11394  9108  9096 1
11395  9123  9111 1
11396  9124  9112 1
11397  9125  9113 1
11398  9126  9114 1
11399  9127  9117 1
11400  9128  9117 1
11401  9129  9118 1
11402  9130  9118 1
11403  9145  9133 1
11404  9146  9134 1
11405  9147  9135 1
11406  9148  9136 1
11407  9149  9139 1
11408  9150  9139 1
11409  9151  9140 1
11410  9152  9140 1
11411  9167  9155 1
11412  9168  9156 1
11413  9169  9157 1
11414  9170  9158 1
11415  9171  9161 1
11416  9172  9161 1
11417  9173  9162 1
11418  9174  9162 1
11419  9189  9177 1
11420  9190  9178 1
11421  9191  9179 1
11422  9192  9180 1
11423  9193  9183 1
11424  9194  9183 1
11425  9195  9184 1
11426  9196  9184 1
11427  9211  9199 1
11428  9212  9200 1
11429  9213  9201 1
11430  9214  9202 1
11431  9215  9205 1
11432  9216  9205 1
11433  9217  9206 1
11434  9218  9206 1
11435  9233  9221 1
11436  9234  9222 1
11437  9235  9223 1
11438  9236  9224 1
11439  9237  9227 1
11440  9238  9227 1
11441  9239  9228 1
11442  9240  9228 1
11443  9255  9243 1
11444  9256  9244 1
11445  9257  9245 1
11446  9258  9246 1
11447  9259  9249 1
11448  9260  9249 1
11449  9261  9250 1
11450  9262  9250 1
11451  9277  9265 1
11452  9278  9266 1
11453  9279  9267 1
11454  9280  9268 1
11455  9281  9271 1
11456  9282  9271 1
11457  9283  9272 1
11458  9284  9272 1
11459  9299  9287 1
11460  9300  9288 1
11461  9301  9289 1
11462  9302  9290 1
11463  9303  9293 1
11464  9304  9293 1
11465  9305  9294 1
11466  9306  9294 1
11467  9321  9309 1
11468  9322  9310 1
11469  9323  9311 1
11470  9324  9312 1
11471  9325  9315 1
11472  9326  9315 1
11473  9327  9316 1
11474  9328  9316 1
11475  9343  9331 1
11476  9344  9332 1
11477  9345  9333 1
11478  9346  9334 1
11479  9347  9337 1
11480  9348  9337 1
11481  9349  9338 1
11482  9350  9338 1
11483  9365  9353 1
11484  9366  9354 1
11485  9367  9355 1
11486  9368  9356 1
11487  9369  9359 1
11488  9370  9359 1
11489  9371  9360 1
11490  9372  9360 1
11491  9387  9375 1
11492  9388  9376 1
11493  9389  9377 1
11494  9390  9378 1
11495  9391  9381 1
11496  9392  9381 1
11497  9393  9382 1
11498  9394  9382 1
11499  9409  9397 1
11500  9410  9398 1
11501  9411  9399 1
11502  9412  9400 1
11503  9413  9403 1
11504  9414  9403 1
11505  9415  9404 1
11506  9416  9404 1
11507  9431  9419 1
11508  9432  9420 1
11509  9433  9421 1
11510  9434  9422 1
11511  9435  9425 1
11512  9436  9425 1
11513  9437  9426 1
11514  9438  9426 1
11515  9453  9441 1
11516  9454  9442 1
11517  9455  9443 1
11518  9456  9444 1
11519  9457  9447 1
11520  9458  9447 1
11521  9459  9448 1
11522  9460  9448 1
11523  9475  9463 1
11524  9476  9464 1
11525  9477  9465 1
11526  9478  9466 1
11527  9479  9469 1
11528  9480  9469 1
11529  9481  9470 1
11530  9482  9470 1
11531  9497  9485 1
11532  9498  9486 1
11533  9499  9487 1
11534  9500  9488 1
11535  9501  9491 1
11536  9502  9491 1
11537  9503  9492 1
11538  9504  9492 1
11539  9519  9507 1
11540  9520  9508 1
11541  9521  9509 1
11542  9522  9510 1
11543  9523  9513 1
11544  9524  9513 1
11545  9525  9514 1
11546  9526  9514 1
11547  9541  9529 1
11548  9542  9530 1
11549  9543  9531 1
11550  9544  9532 1
11551  9545  9535 1
11552  9546  9535 1
11553  9547  9536 1
11554  9548  9536 1
11555  9563  9551 1
11556  9564  9552 1
11557  9565  9553 1
11558  9566  9554 1
11559  9567  9557 1
11560  9568  9557 1
11561  9569  9558 1
11562  9570  9558 1
11563  9585  9573 1
11564  9586  9574 1
11565  9587  9575 1
11566  9588  9576 1
11567  9589  9579 1
11568  9590  9579 1
11569  9591  9580 1
11570  9592  9580 1
11571  9607  9595 1
11572  9608  9596 1
11573  9609  9597 1
11574  9610  9598 1
11575  9611  9601 1
11576  9612  9601 1
11577  9613  9602 1
11578  9614  9602 1
11579  9629  9617 1
11580  9630  9618 1
11581  9631  9619 1
11582  9632  9620 1
11583  9633  9623 1
11584  9634  9623 1
11585  9635  9624 1
11586  9636  9624 1
11587  9651  9639 1
11588  9652  9640 1
11589  9653  9641 1
11590  9654  9642 1
11591  9655  9645 1
11592  9656  9645 1
11593  9657  9646 1
11594  9658  9646 1
11595  9673  9661 1
11596  9674  9662 1
11597  9675  9663 1
11598  9676  9664 1
11599  9677  9667 1
11600  9678  9667 1
11601  9679  9668 1
11602  9680  9668 1
11603  9695  9683 1
11604  9696  9684 1
11605  9697  9685 1
11606  9698  9686 1
11607  9699  9689 1
11608  9700  9689 1
11609  9701  9690 1
11610  9702  9690 1
11611  9717  9705 1
11612  9718  9706 1
11613  9719  9707 1
11614  9720  9708 1
11615  9721  9711 1
11616  9722  9711 1
11617  9723  9712 1
11618  9724  9712 1
11619  9739  9727 1
11620  9740  9728 1
11621  9741  9729 1
11622  9742  9730 1
11623  9743  9733 1
11624  9744  9733 1
11625  9745  9734 1
11626  9746  9734 1
11627  9761  9749 1
11628  9762  9750 1
11629  9763  9751 1
11630  9764  9752 1
11631  9765  9755 1
11632  9766  9755 1
11633  9767  9756 1
11634  9768  9756 1
11635  9783  9771 1
11636  9784  9772 1
11637  9785  9773 1
11638  9786  9774 1
11639  9787  9777 1
11640  9788  9777 1
11641  9789  9778 1
11642  9790  9778 1
11643  9805  9793 1
11644  9806  9794 1
11645  9807  9795 1
11646  9808  9796 1
11647  9809  9799 1
11648  9810  9799 1
11649  9811  9800 1
11650  9812  9800 1
11651  9827  9815 1
11652  9828  9816 1
11653  9829  9817 1
11654  9830  9818 1
11655  9831  9821 1
11656  9832  9821 1
11657  9833  9822 1
11658  9834  9822 1
11659  9849  9837 1
11660  9850  9838 1
11661  9851  9839 1
11662  9852  9840 1
11663  9853  9843 1
11664  9854  9843 1
11665  9855  9844 1
11666  9856  9844 1
11667  9871  9859 1
11668  9872  9860 1
11669  9873  9861 1
11670  9874  9862 1
11671  9875  9865 1
11672  9876  9865 1
11673  9877  9866 1
11674  9878  9866 1
11675  9893  9881 1
11676  9894  9882 1
11677  9895  9883 1
11678  9896  9884 1
11679  9897  9887 1
11680  9898  9887 1
11681  9899  9888 1
11682  9900  9888 1
11683  9915  9903 1
11684  9916  9904 1
11685  9917  9905 1
11686  9918  9906 1
11687  9919  9909 1
11688  9920  9909 1
11689  9921  9910 1
11690  9922  9910 1
11691  9937  9925 1
11692  9938  9926 1
11693  9939  9927 1
11694  9940  9928 1
11695  9941  9931 1
11696  9942  9931 1
11697  9943  9932 1
11698  9944  9932 1
11699  9959  9947 1
11700  9960  9948 1
11701  9961  9949 1
11702  9962  9950 1
11703  9963  9953 1
11704  9964  9953 1
11705  9965  9954 1
11706  9966  9954 1
11707  9981  9969 1
11708  9982  9970 1
11709  9983  9971 1
11710  9984  9972 1
11711  9985  9975 1
11712  9986  9975 1
11713  9987  9976 1
11714  9988  9976 1
11715 10003  9991 1
11716 10004  9992 1
11717 10005  9993 1
11718 10006  9994 1
11719 10007  9997 1
11720 10008  9997 1
11721 10009  9998 1
11722 10010  9998 1
11723 10025 10013 1
11724 10026 10014 1
11725 10027 10015 1
11726 10028 10016 1
11727 10029 10019 1
11728 10030 10019 1
11729 10031 10020 1
11730 10032 10020 1
11731 10047 10035 1
11732 10048 10036 1
11733 10049 10037 1
11734 10050 10038 1
11735 10051 10041 1
11736 10052 10041 1
11737 10053 10042 1
11738 10054 10042 1
11739 10069 10057 1
11740 10070 10058 1
11741 10071 10059 1
11742 10072 10060 1
11743 10073 10063 1
11744 10074 10063 1
11745 10075 10064 1
11746 10076 10064 1
11747 10091 10079 1
11748 10092 10080 1
11749 10093 10081 1
11750 10094 10082 1
11751 10095 10085 1
11752 10096 10085 1
11753 10097 10086 1
11754 10098 10086 1
11755 10113 10101 1
11756 10114 10102 1
11757 10115 10103 1
11758 10116 10104 1
11759 10117 10107 1
11760 10118 10107 1
11761 10119 10108 1
11762 10120 10108 1
11763 10135 10123 1
11764 10136 10124 1
11765 10137 10125 1
11766 10138 10126 1
11767 10139 10129 1
11768 10140 10129 1
11769 10141 10130 1
11770 10142 10130 1
11771 10157 10145 1
11772 10158 10146 1
11773 10159 10147 1
11774 10160 10148 1
11775 10161 10151 1
11776 10162 10151 1
11777 10163 10152 1
11778 10164 10152 1
11779 10179 10167 1
11780 10180 10168 1
11781 10181 10169 1
11782 10182 10170 1
11783 10183 10173 1
11784 10184 10173 1
11785 10185 10174 1
11786 10186 10174 1
11787 10201 10189 1
11788 10202 10190 1
11789 10203 10191 1
11790 10204 10192 1
11791 10205 10195 1
11792 10206 10195 1
11793 10207 10196 1
11794 10208 10196 1
11795 10223 10211 1
11796 10224 10212 1
11797 10225 10213 1
11798 10226 10214 1
11799 10227 10217 1
11800 10228 10217 1
11801 10229 10218 1
11802 10230 10218 1
11803 10245 10233 1
11804 10246 10234 1
11805 10247 10235 1
11806 10248 10236 1
11807 10249 10239 1
11808 10250 10239 1
11809 10251 10240 1
11810 10252 10240 1
11811 10267 10255 1
11812 10268 10256 1
11813 10269 10257 1
11814 10270 10258 1
11815 10271 10261 1
11816 10272 10261 1
11817 10273 10262 1
11818 10274 10262 1
11819 10289 10277 1
11820 10290 10278 1
11821 10291 10279 1
11822 10292 10280 1
11823 10293 10283 1
11824 10294 10283 1
11825 10295 10284 1
11826 10296 10284 1
11827 10311 10299 1
11828 10312 10300 1
11829 10313 10301 1
11830 10314 10302 1
11831 10315 10305 1
11832 10316 10305 1
11833 10317 10306 1
11834 10318 10306 1
11835 10333 10321 1
11836 10334 10322 1
11837 10335 10323 1
11838 10336 10324 1
11839 10337 10327 1
11840 10338 10327 1
11841 10339 10328 1
11842 10340 10328 1
11843 10355 10343 1
11844 10356 10344 1
11845 10357 10345 1
11846 10358 10346 1
11847 10359 10349 1
11848 10360 10349 1
11849 10361 10350 1
11850 10362 10350 1
11851 10377 10365 1
11852 10378 10366 1
11853 10379 10367 1
11854 10380 10368 1
11855 10381 10371 1
11856 10382 10371 1
11857 10383 10372 1
11858 10384 10372 1
11859 10399 10387 1
11860 10400 10388 1
11861 10401 10389 1
11862 10402 10390 1
11863 10403 10393 1
11864 10404 10393 1
11865 10405 10394 1
11866 10406 10394 1
11867 10421 10409 1
11868 10422 10410 1
11869 10423 10411 1
11870 10424 10412 1
11871 10425 10415 1
11872 10426 10415 1
11873 10427 10416 1
11874 10428 10416 1
11875 10443 10431 1
11876 10444 10432 1
11877 10445 10433 1
11878 10446 10434 1
11879 10447 10437 1
11880 10448 10437 1
11881 10449 10438 1
11882 10450 10438 1
11883 10465 10453 1
11884 10466 10454 1
11885 10467 10455 1
11886 10468 10456 1
11887 10469 10459 1
11888 10470 10459 1
11889 10471 10460 1
11890 10472 10460 1
11891 10487 10475 1
11892 10488 10476 1
11893 10489 10477 1
11894 10490 10478 1
11895 10491 10481 1
11896 10492 10481 1
11897 10493 10482 1
11898 10494 10482 1
11899 10509 10497 1
11900 10510 10498 1
11901 10511 10499 1
11902 10512 10500 1
11903 10513 10503 1
11904 10514 10503 1
11905 10515 10504 1
11906 10516 10504 1
11907 10531 10519 1
11908 10532 10520 1
11909 10533 10521 1
11910 10534 10522 1
11911 10535 10525 1
11912 10536 10525 1
11913 10537 10526 1
11914 10538 10526 1
11915 10553 10541 1
11916 10554 10542 1
11917 10555 10543 1
11918 10556 10544 1
11919 10557 10547 1
11920 10558 10547 1
11921 10559 10548 1
11922 10560 10548 1
11923 10575 10563 1
11924 10576 10564 1
11925 10577 10565 1
11926 10578 10566 1
11927 10579 10569 1
11928 10580 10569 1
11929 10581 10570 1
11930 10582 10570 1
11931 10597 10585 1
11932 10598 10586 1
11933 10599 10587 1
11934 10600 10588 1
11935 10601 10591 1
11936 10602 10591 1
11937 10603 10592 1
11938 10604 10592 1
11939 10619 10607 1
11940 10620 10608 1
11941 10621 10609 1
11942 10622 10610 1
11943 10623 10613 1
11944 10624 10613 1
11945 10625 10614 1
11946 10626 10614 1
11947 10641 10629 1
11948 10642 10630 1
11949 10643 10631 1
11950 10644 10632 1
11951 10645 10635 1
11952 10646 10635 1
11953 10647 10636 1
11954 10648 10636 1
11955 10663 10651 1
11956 10664 10652 1
11957 10665 10653 1
11958 10666 10654 1
11959 10667 10657 1
11960 10668 10657 1
11961 10669 10658 1
11962 10670 10658 1
11963 10685 10673 1
11964 10686 10674 1
11965 10687 10675 1
11966 10688 10676 1
11967 10689 10679 1
11968 10690 10679 1
11969 10691 10680 1
11970 10692 10680 1
11971 10707 10695 1
11972 10708 10696 1
11973 10709 10697 1
11974 10710 10698 1
11975 10711 10701 1
11976 10712 10701 1
11977 10713 10702 1
11978 10714 10702 1
11979 10729 10717 1
11980 10730 10718 1
11981 10731 10719 1
11982 10732 10720 1
11983 10733 10723 1
11984 10734 10723 1
11985 10735 10724 1
11986 10736 10724 1
11987 10751 10739 1
11988 10752 10740 1
11989 10753 10741 1
11990 10754 10742 1
11991 10755 10745 1
11992 10756 10745 1
11993 10757 10746 1
11994 10758 10746 1
11995 10773 10761 1
11996 10774 10762 1
11997 10775 10763 1
11998 10776 10764 1
11999 10777 10767 1
12000 10778 10767 1
12001 10779 10768 1
12002 10780 10768 1
12003 10795 10783 1
12004 10796 10784 1
12005 10797 10785 1
12006 10798 10786 1
12007 10799 10789 1
12008 10800 10789 1
12009 10801 10790 1
12010 10802 10790 1
12011 10817 10805 1
12012 10818 10806 1
12013 10819 10807 1
12014 10820 10808 1
12015 10821 10811 1
12016 10822 10811 1
12017 10823 10812 1
12018 10824 10812 1
12019 10839 10827 1
12020 10840 10828 1
12021 10841 10829 1
12022 10842 10830 1
12023 10843 10833 1
12024 10844 10833 1
12025 10845 10834 1
12026 10846 10834 1
12027 10861 10849 1
12028 10862 10850 1
12029 10863 10851 1
12030 10864 10852 1
12031 10865 10855 1
12032 10866 10855 1
12033 10867 10856 1
12034 10868 10856 1
12035 10883 10871 1
12036 10884 10872 1
12037 10885 10873 1
12038 10886 10874 1
12039 10887 10877 1
12040 10888 10877 1
12041 10889 10878 1
12042 10890 10878 1
12043 10905 10893 1
12044 10906 10894 1
12045 10907 10895 1
12046 10908 10896 1
12047 10909 10899 1
12048 10910 10899 1
12049 10911 10900 1
12050 10912 10900 1
12051 10927 10915 1
12052 10928 10916 1
12053 10929 10917 1
12054 10930 10918 1
12055 10931 10921 1
12056 10932 10921 1
12057 10933 10922 1
12058 10934 10922 1
12059 10949 10937 1
12060 10950 10938 1
12061 10951 10939 1
12062 10952 10940 1
12063 10953 10943 1
12064 10954 10943 1
12065 10955 10944 1
12066 10956 10944 1
12067 10971 10959 1
12068 10972 10960 1
12069 10973 10961 1
12070 10974 10962 1
12071 10975 10965 1
12072 10976 10965 1
12073 10977 10966 1
12074 10978 10966 1
12075 10993 10981 1
12076 10994 10982 1
12077 10995 10983 1
12078 10996 10984 1
12079 10997 10987 1
12080 10998 10987 1
12081 10999 10988 1
12082 11000 10988 1
12083 11015 11003 1
12084 11016 11004 1
12085 11017 11005 1
12086 11018 11006 1
12087 11019 11009 1
12088 11020 11009 1
12089 11021 11010 1
12090 11022 11010 1
12091 11037 11025 1
12092 11038 11026 1
12093 11039 11027 1
12094 11040 11028 1
12095 11041 11031 1
12096 11042 11031 1
12097 11043 11032 1
12098 11044 11032 1
12099 11059 11047 1
12100 11060 11048 1
12101 11061 11049 1
12102 11062 11050 1
12103 11063 11053 1
12104 11064 11053 1
12105 11065 11054 1
12106 11066 11054 1
12107 11081 11069 1
12108 11082 11070 1
12109 11083 11071 1
12110 11084 11072 1
12111 11085 11075 1
12112 11086 11075 1
12113 11087 11076 1
12114 11088 11076 1
12115 11103 11091 1
12116 11104 11092 1
12117 11105 11093 1
12118 11106 11094 1
12119 11107 11097 1
12120 11108 11097 1
12121 11109 11098 1
12122 11110 11098 1
12123 11125 11113 1
12124 11126 11114 1
12125 11127 11115 1
12126 11128 11116 1
12127 11129 11119 1
12128 11130 11119 1
12129 11131 11120 1
12130 11132 11120 1
12131 11147 11135 1
12132 11148 11136 1
12133 11149 11137 1
12134 11150 11138 1
12135 11151 11141 1
12136 11152 11141 1
12137 11153 11142 1
12138 11154 11142 1
12139 11169 11157 1
12140 11170 11158 1
12141 11171 11159 1
12142 11172 11160 1
12143 11173 11163 1
12144 11174 11163 1
12145 11175 11164 1
12146 11176 11164 1
12147 11191 11179 1
12148 11192 11180 1
12149 11193 11181 1
12150 11194 11182 1
12151 11195 11185 1
12152 11196 11185 1
12153 11197 11186 1
12154 11198 11186 1
12155 11213 11201 1
12156 11214 11202 1
12157 11215 11203 1
12158 11216 11204 1
12159 11217 11207 1
12160 11218 11207 1
12161 11219 11208 1
12162 11220 11208 1
12163 11235 11223 1
12164 11236 11224 1
12165 11237 11225 1
12166 11238 11226 1
12167 11239 11229 1
12168 11240 11229 1
12169 11241 11230 1
12170 11242 11230 1
12171 11257 11245 1
12172 11258 11246 1
12173 11259 11247 1
12174 11260 11248 1
12175 11261 11251 1
12176 11262 11251 1
12177 11263 11252 1
12178 11264 11252 1
12179 11279 11267 1
12180 11280 11268 1
12181 11281 11269 1
12182 11282 11270 1
12183 11283 11273 1
12184 11284 11273 1
12185 11285 11274 1
12186 11286 11274 1
12187 11301 11289 1
12188 11302 11290 1
12189 11303 11291 1
12190 11304 11292 1
12191 11305 11295 1
12192 11306 11295 1
12193 11307 11296 1
12194 11308 11296 1
12195 11323 11311 1
12196 11324 11312 1
12197 11325 11313 1
12198 11326 11314 1
12199 11327 11317 1
12200 11328 11317 1
12201 11329 11318 1
12202 11330 11318 1
12203 11345 11333 1
12204 11346 11334 1
12205 11347 11335 1
12206 11348 11336 1
12207 11349 11339 1
12208 11350 11339 1
12209 11351 11340 1
12210 11352 11340 1
12211 11367 11355 1
12212 11368 11356 1
12213 11369 11357 1
12214 11370 11358 1
12215 11371 11361 1
12216 11372 11361 1
12217 11373 11362 1
12218 11374 11362 1
12219 11389 11377 1
12220 11390 11378 1
12221 11391 11379 1
12222 11392 11380 1
12223 11393 11383 1
12224 11394 11383 1
12225 11395 11384 1
12226 11396 11384 1
12227 11411 11399 1
12228 11412 11400 1
12229 11413 11401 1
12230 11414 11402 1
12231 11415 11405 1
12232 11416 11405 1
12233 11417 11406 1
12234 11418 11406 1
12235 11433 11421 1
12236 11434 11422 1
12237 11435 11423 1
12238 11436 11424 1
12239 11437 11427 1
12240 11438 11427 1
12241 11439 11428 1
12242 11440 11428 1
12243 11455 11443 1
12244 11456 11444 1
12245 11457 11445 1
12246 11458 11446 1
12247 11459 11449 1
12248 11460 11449 1
12249 11461 11450 1
12250 11462 11450 1
12251 11477 11465 1
12252 11478 11466 1
12253 11479 11467 1
12254 11480 11468 1
12255 11481 11471 1
12256 11482 11471 1
12257 11483 11472 1
12258 11484 11472 1
12259 11499 11487 1
12260 11500 11488 1
12261 11501 11489 1
12262 11502 11490 1
12263 11503 11493 1
12264 11504 11493 1
12265 11505 11494 1
12266 11506 11494 1
12267 11521 11509 1
12268 11522 11510 1
12269 11523 11511 1
12270 11524 11512 1
12271 11525 11515 1
12272 11526 11515 1
12273 11527 11516 1
12274 11528 11516 1
12275 11543 11531 1
12276 11544 11532 1
12277 11545 11533 1
12278 11546 11534 1
12279 11547 11537 1
12280 11548 11537 1
12281 11549 11538 1
12282 11550 11538 1
12283 11565 11553 1
12284 11566 11554 1
12285 11567 11555 1
12286 11568 11556 1
12287 11569 11559 1
12288 11570 11559 1
12289 11571 11560 1
12290 11572 11560 1
12291 11587 11575 1
12292 11588 11576 1
12293 11589 11577 1
12294 11590 11578 1
12295 11591 11581 1
12296 11592 11581 1
12297 11593 11582 1
12298 11594 11582 1
12299 11609 11597 1
12300 11610 11598 1
12301 11611 11599 1
12302 11612 11600 1
12303 11613 11603 1
12304 11614 11603 1
12305 11615 11604 1
12306 11616 11604 1
12307 11631 11619 1
12308 11632 11620 1
12309 11633 11621 1
12310 11634 11622 1
12311 11635 11625 1
12312 11636 11625 1
12313 11637 11626 1
12314 11638 11626 1
12315 11653 11641 1
12316 11654 11642 1
12317 11655 11643 1
12318 11656 11644 1
12319 11657 11647 1
12320 11658 11647 1
12321 11659 11648 1
12322 11660 11648 1
12323 11675 11663 1
12324 11676 11664 1
12325 11677 11665 1
12326 11678 11666 1
12327 11679 11669 1
12328 11680 11669 1
12329 11681 11670 1
12330 11682 11670 1
12331 11697 11685 1
12332 11698 11686 1
12333 11699 11687 1
12334 11700 11688 1
12335 11701 11691 1
12336 11702 11691 1
12337 11703 11692 1
12338 11704 11692 1
12339 11719 11707 1
12340 11720 11708 1
12341 11721 11709 1
12342 11722 11710 1
12343 11723 11713 1
12344 11724 11713 1
12345 11725 11714 1
12346 11726 11714 1
12347 11741 11729 1
12348 11742 11730 1
12349 11743 11731 1
12350 11744 11732 1
12351 11745 11735 1
12352 11746 11735 1
12353 11747 11736 1
12354 11748 11736 1
12355 11763 11751 1
12356 11764 11752 1
12357 11765 11753 1
12358 11766 11754 1
12359 11767 11757 1
12360 11768 11757 1
12361 11769 11758 1
12362 11770 11758 1
12363 11785 11773 1
12364 11786 11774 1
12365 11787 11775 1
12366 11788 11776 1
12367 11789 11779 1
12368 11790 11779 1
12369 11791 11780 1
12370 11792 11780 1
12371 11807 11795 1
12372 11808 11796 1
12373 11809 11797 1
12374 11810 11798 1
12375 11811 11801 1
12376 11812 11801 1
12377 11813 11802 1
12378 11814 11802 1
12379 11829 11817 1
12380 11830 11818 1
12381 11831 11819 1
12382 11832 11820 1
12383 11833 11823 1
12384 11834 11823 1
12385 11835 11824 1
12386 11836 11824 1
12387 11851 11839 1
12388 11852 11840 1
12389 11853 11841 1
12390 11854 11842 1
12391 11855 11845 1
12392 11856 11845 1
12393 11857 11846 1
12394 11858 11846 1
12395 11873 11861 1
12396 11874 11862 1
12397 11875 11863 1
12398 11876 11864 1
12399 11877 11867 1
12400 11878 11867 1
12401 11879 11868 1
12402 11880 11868 1
@<TRIPOS>SUBSTRUCTURE
      1 PET               1 ****               0 ****  **** 
      2 PET              23 ****               0 ****  **** 
      3 PET              45 ****               0 ****  **** 
      4 PET              67 ****               0 ****  **** 
      5 PET              89 ****               0 ****  **** 
      6 PET             111 ****               0 ****  **** 
      7 PET             133 ****               0 ****  **** 
      8 PET             155 ****               0 ****  **** 
      9 PET             177 ****               0 ****  **** 
     10 PET             199 ****               0 ****  **** 
     11 PET             221 ****               0 ****  **** 
     12 PET             243 ****               0 ****  **** 
     13 PET             265 ****               0 ****  **** 
     14 PET             287 ****               0 ****  **** 
     15 PET             309 ****               0 ****  **** 
     16 PET             331 ****               0 ****  **** 
     17 PET             353 ****               0 ****  **** 
     18 PET             375 ****               0 ****  **** 
     19 PET             397 ****               0 ****  **** 
     20 PET             419 ****               0 ****  **** 
     21 PET             441 ****               0 ****  **** 
     22 PET             463 ****               0 ****  **** 
     23 PET             485 ****               0 ****  **** 
     24 PET             507 ****               0 ****  **** 
     25 PET             529 ****               0 ****  **** 
     26 PET             551 ****               0 ****  **** 
     27 PET             573 ****               0 ****  **** 
     28 PET             595 ****               0 ****  **** 
     29 PET             617 ****               0 ****  **** 
     30 PET             639 ****               0 ****  **** 
     31 PET             661 ****               0 ****  **** 
     32 PET             683 ****               0 ****  **** 
     33 PET             705 ****               0 ****  **** 
     34 PET             727 ****               0 ****  **** 
     35 PET             749 ****               0 ****  **** 
     36 PET             771 ****               0 ****  **** 
     37 PET             793 ****               0 ****  **** 
     38 PET             815 ****               0 ****  **** 
     39 PET             837 ****               0 ****  **** 
     40 PET             859 ****               0 ****  **** 
     41 PET             881 ****               0 ****  **** 
     42 PET             903 ****               0 ****  **** 
     43 PET             925 ****               0 ****  **** 
     44 PET             947 ****               0 ****  **** 
     45 PET             969 ****               0 ****  **** 
     46 PET             991 ****               0 ****  **** 
     47 PET            1013 ****               0 ****  **** 
     48 PET            1035 ****               0 ****  **** 
     49 PET            1057 ****               0 ****  **** 
     50 PET            1079 ****               0 ****  **** 
     51 PET            1101 ****               0 ****  **** 
     52 PET            1123 ****               0 ****  **** 
     53 PET            1145 ****               0 ****  **** 
     54 PET            1167 ****               0 ****  **** 
     55 PET            1189 ****               0 ****  **** 
     56 PET            1211 ****               0 ****  **** 
     57 PET            1233 ****               0 ****  **** 
     58 PET            1255 ****               0 ****  **** 
     59 PET            1277 ****               0 ****  **** 
     60 PET            1299 ****               0 ****  **** 
     61 PET            1321 ****               0 ****  **** 
     62 PET            1343 ****               0 ****  **** 
     63 PET            1365 ****               0 ****  **** 
     64 PET            1387 ****               0 ****  **** 
     65 PET            1409 ****               0 ****  **** 
     66 PET            1431 ****               0 ****  **** 
     67 PET            1453 ****               0 ****  **** 
     68 PET            1475 ****               0 ****  **** 
     69 PET            1497 ****               0 ****  **** 
     70 PET            1519 ****               0 ****  **** 
     71 PET            1541 ****               0 ****  **** 
     72 PET            1563 ****               0 ****  **** 
     73 PET            1585 ****               0 ****  **** 
     74 PET            1607 ****               0 ****  **** 
     75 PET            1629 ****               0 ****  **** 
     76 PET            1651 ****               0 ****  **** 
     77 PET            1673 ****               0 ****  **** 
     78 PET            1695 ****               0 ****  **** 
     79 PET            1717 ****               0 ****  **** 
     80 PET            1739 ****               0 ****  **** 
     81 PET            1761 ****               0 ****  **** 
     82 PET            1783 ****               0 ****  **** 
     83 PET            1805 ****               0 ****  **** 
     84 PET            1827 ****               0 ****  **** 
     85 PET            1849 ****               0 ****  **** 
     86 PET            1871 ****               0 ****  **** 
     87 PET            1893 ****               0 ****  **** 
     88 PET            1915 ****               0 ****  **** 
     89 PET            1937 ****               0 ****  **** 
     90 PET            1959 ****               0 ****  **** 
     91 PET            1981 ****               0 ****  **** 
     92 PET            2003 ****               0 ****  **** 
     93 PET            2025 ****               0 ****  **** 
     94 PET            2047 ****               0 ****  **** 
     95 PET            2069 ****               0 ****  **** 
     96 PET            2091 ****               0 ****  **** 
     97 PET            2113 ****               0 ****  **** 
     98 PET            2135 ****               0 ****  **** 
     99 PET            2157 ****               0 ****  **** 
    100 PET            2179 ****               0 ****  **** 
    101 PET            2201 ****               0 ****  **** 
    102 PET            2223 ****               0 ****  **** 
    103 PET            2245 ****               0 ****  **** 
    104 PET            2267 ****               0 ****  **** 
    105 PET            2289 ****               0 ****  **** 
    106 PET            2311 ****               0 ****  **** 
    107 PET            2333 ****               0 ****  **** 
    108 PET            2355 ****               0 ****  **** 
    109 PET            2377 ****               0 ****  **** 
    110 PET            2399 ****               0 ****  **** 
    111 PET            2421 ****               0 ****  **** 
    112 PET            2443 ****               0 ****  **** 
    113 PET            2465 ****               0 ****  **** 
    114 PET            2487 ****               0 ****  **** 
    115 PET            2509 ****               0 ****  **** 
    116 PET            2531 ****               0 ****  **** 
    117 PET            2553 ****               0 ****  **** 
    118 PET            2575 ****               0 ****  **** 
    119 PET            2597 ****               0 ****  **** 
    120 PET            2619 ****               0 ****  **** 
    121 PET            2641 ****               0 ****  **** 
    122 PET            2663 ****               0 ****  **** 
    123 PET            2685 ****               0 ****  **** 
    124 PET            2707 ****               0 ****  **** 
    125 PET            2729 ****               0 ****  **** 
    126 PET            2751 ****               0 ****  **** 
    127 PET            2773 ****               0 ****  **** 
    128 PET            2795 ****               0 ****  **** 
    129 PET            2817 ****               0 ****  **** 
    130 PET            2839 ****               0 ****  **** 
    131 PET            2861 ****               0 ****  **** 
    132 PET            2883 ****               0 ****  **** 
    133 PET            2905 ****               0 ****  **** 
    134 PET            2927 ****               0 ****  **** 
    135 PET            2949 ****               0 ****  **** 
    136 PET            2971 ****               0 ****  **** 
    137 PET            2993 ****               0 ****  **** 
    138 PET            3015 ****               0 ****  **** 
    139 PET            3037 ****               0 ****  **** 
    140 PET            3059 ****               0 ****  **** 
    141 PET            3081 ****               0 ****  **** 
    142 PET            3103 ****               0 ****  **** 
    143 PET            3125 ****               0 ****  **** 
    144 PET            3147 ****               0 ****  **** 
    145 PET            3169 ****               0 ****  **** 
    146 PET            3191 ****               0 ****  **** 
    147 PET            3213 ****               0 ****  **** 
    148 PET            3235 ****               0 ****  **** 
    149 PET            3257 ****               0 ****  **** 
    150 PET            3279 ****               0 ****  **** 
    151 PET            3301 ****               0 ****  **** 
    152 PET            3323 ****               0 ****  **** 
    153 PET            3345 ****               0 ****  **** 
    154 PET            3367 ****               0 ****  **** 
    155 PET            3389 ****               0 ****  **** 
    156 PET            3411 ****               0 ****  **** 
    157 PET            3433 ****               0 ****  **** 
    158 PET            3455 ****               0 ****  **** 
    159 PET            3477 ****               0 ****  **** 
    160 PET            3499 ****               0 ****  **** 
    161 PET            3521 ****               0 ****  **** 
    162 PET            3543 ****               0 ****  **** 
    163 PET            3565 ****               0 ****  **** 
    164 PET            3587 ****               0 ****  **** 
    165 PET            3609 ****               0 ****  **** 
    166 PET            3631 ****               0 ****  **** 
    167 PET            3653 ****               0 ****  **** 
    168 PET            3675 ****               0 ****  **** 
    169 PET            3697 ****               0 ****  **** 
    170 PET            3719 ****               0 ****  **** 
    171 PET            3741 ****               0 ****  **** 
    172 PET            3763 ****               0 ****  **** 
    173 PET            3785 ****               0 ****  **** 
    174 PET            3807 ****               0 ****  **** 
    175 PET            3829 ****               0 ****  **** 
    176 PET            3851 ****               0 ****  **** 
    177 PET            3873 ****               0 ****  **** 
    178 PET            3895 ****               0 ****  **** 
    179 PET            3917 ****               0 ****  **** 
    180 PET            3939 ****               0 ****  **** 
    181 PET            3961 ****               0 ****  **** 
    182 PET            3983 ****               0 ****  **** 
    183 PET            4005 ****               0 ****  **** 
    184 PET            4027 ****               0 ****  **** 
    185 PET            4049 ****               0 ****  **** 
    186 PET            4071 ****               0 ****  **** 
    187 PET            4093 ****               0 ****  **** 
    188 PET            4115 ****               0 ****  **** 
    189 PET            4137 ****               0 ****  **** 
    190 PET            4159 ****               0 ****  **** 
    191 PET            4181 ****               0 ****  **** 
    192 PET            4203 ****               0 ****  **** 
    193 PET            4225 ****               0 ****  **** 
    194 PET            4247 ****               0 ****  **** 
    195 PET            4269 ****               0 ****  **** 
    196 PET            4291 ****               0 ****  **** 
    197 PET            4313 ****               0 ****  **** 
    198 PET            4335 ****               0 ****  **** 
    199 PET            4357 ****               0 ****  **** 
    200 PET            4379 ****               0 ****  **** 
    201 PET            4401 ****               0 ****  **** 
    202 PET            4423 ****               0 ****  **** 
    203 PET            4445 ****               0 ****  **** 
    204 PET            4467 ****               0 ****  **** 
    205 PET            4489 ****               0 ****  **** 
    206 PET            4511 ****               0 ****  **** 
    207 PET            4533 ****               0 ****  **** 
    208 PET            4555 ****               0 ****  **** 
    209 PET            4577 ****               0 ****  **** 
    210 PET            4599 ****               0 ****  **** 
    211 PET            4621 ****               0 ****  **** 
    212 PET            4643 ****               0 ****  **** 
    213 PET            4665 ****               0 ****  **** 
    214 PET            4687 ****               0 ****  **** 
    215 PET            4709 ****               0 ****  **** 
    216 PET            4731 ****               0 ****  **** 
    217 PET            4753 ****               0 ****  **** 
    218 PET            4775 ****               0 ****  **** 
    219 PET            4797 ****               0 ****  **** 
    220 PET            4819 ****               0 ****  **** 
    221 PET            4841 ****               0 ****  **** 
    222 PET            4863 ****               0 ****  **** 
    223 PET            4885 ****               0 ****  **** 
    224 PET            4907 ****               0 ****  **** 
    225 PET            4929 ****               0 ****  **** 
    226 PET            4951 ****               0 ****  **** 
    227 PET            4973 ****               0 ****  **** 
    228 PET            4995 ****               0 ****  **** 
    229 PET            5017 ****               0 ****  **** 
    230 PET            5039 ****               0 ****  **** 
    231 PET            5061 ****               0 ****  **** 
    232 PET            5083 ****               0 ****  **** 
    233 PET            5105 ****               0 ****  **** 
    234 PET            5127 ****               0 ****  **** 
    235 PET            5149 ****               0 ****  **** 
    236 PET            5171 ****               0 ****  **** 
    237 PET            5193 ****               0 ****  **** 
    238 PET            5215 ****               0 ****  **** 
    239 PET            5237 ****               0 ****  **** 
    240 PET            5259 ****               0 ****  **** 
    241 PET            5281 ****               0 ****  **** 
    242 PET            5303 ****               0 ****  **** 
    243 PET            5325 ****               0 ****  **** 
    244 PET            5347 ****               0 ****  **** 
    245 PET            5369 ****               0 ****  **** 
    246 PET            5391 ****               0 ****  **** 
    247 PET            5413 ****               0 ****  **** 
    248 PET            5435 ****               0 ****  **** 
    249 PET            5457 ****               0 ****  **** 
    250 PET            5479 ****               0 ****  **** 
    251 PET            5501 ****               0 ****  **** 
    252 PET            5523 ****               0 ****  **** 
    253 PET            5545 ****               0 ****  **** 
    254 PET            5567 ****               0 ****  **** 
    255 PET            5589 ****               0 ****  **** 
    256 PET            5611 ****               0 ****  **** 
    257 PET            5633 ****               0 ****  **** 
    258 PET            5655 ****               0 ****  **** 
    259 PET            5677 ****               0 ****  **** 
    260 PET            5699 ****               0 ****  **** 
    261 PET            5721 ****               0 ****  **** 
    262 PET            5743 ****               0 ****  **** 
    263 PET            5765 ****               0 ****  **** 
    264 PET            5787 ****               0 ****  **** 
    265 PET            5809 ****               0 ****  **** 
    266 PET            5831 ****               0 ****  **** 
    267 PET            5853 ****               0 ****  **** 
    268 PET            5875 ****               0 ****  **** 
    269 PET            5897 ****               0 ****  **** 
    270 PET            5919 ****               0 ****  **** 
    271 PET            5941 ****               0 ****  **** 
    272 PET            5963 ****               0 ****  **** 
    273 PET            5985 ****               0 ****  **** 
    274 PET            6007 ****               0 ****  **** 
    275 PET            6029 ****               0 ****  **** 
    276 PET            6051 ****               0 ****  **** 
    277 PET            6073 ****               0 ****  **** 
    278 PET            6095 ****               0 ****  **** 
    279 PET            6117 ****               0 ****  **** 
    280 PET            6139 ****               0 ****  **** 
    281 PET            6161 ****               0 ****  **** 
    282 PET            6183 ****               0 ****  **** 
    283 PET            6205 ****               0 ****  **** 
    284 PET            6227 ****               0 ****  **** 
    285 PET            6249 ****               0 ****  **** 
    286 PET            6271 ****               0 ****  **** 
    287 PET            6293 ****               0 ****  **** 
    288 PET            6315 ****               0 ****  **** 
    289 PET            6337 ****               0 ****  **** 
    290 PET            6359 ****               0 ****  **** 
    291 PET            6381 ****               0 ****  **** 
    292 PET            6403 ****               0 ****  **** 
    293 PET            6425 ****               0 ****  **** 
    294 PET            6447 ****               0 ****  **** 
    295 PET            6469 ****               0 ****  **** 
    296 PET            6491 ****               0 ****  **** 
    297 PET            6513 ****               0 ****  **** 
    298 PET            6535 ****               0 ****  **** 
    299 PET            6557 ****               0 ****  **** 
    300 PET            6579 ****               0 ****  **** 
    301 PET            6601 ****               0 ****  **** 
    302 PET            6623 ****               0 ****  **** 
    303 PET            6645 ****               0 ****  **** 
    304 PET            6667 ****               0 ****  **** 
    305 PET            6689 ****               0 ****  **** 
    306 PET            6711 ****               0 ****  **** 
    307 PET            6733 ****               0 ****  **** 
    308 PET            6755 ****               0 ****  **** 
    309 PET            6777 ****               0 ****  **** 
    310 PET            6799 ****               0 ****  **** 
    311 PET            6821 ****               0 ****  **** 
    312 PET            6843 ****               0 ****  **** 
    313 PET            6865 ****               0 ****  **** 
    314 PET            6887 ****               0 ****  **** 
    315 PET            6909 ****               0 ****  **** 
    316 PET            6931 ****               0 ****  **** 
    317 PET            6953 ****               0 ****  **** 
    318 PET            6975 ****               0 ****  **** 
    319 PET            6997 ****               0 ****  **** 
    320 PET            7019 ****               0 ****  **** 
    321 PET            7041 ****               0 ****  **** 
    322 PET            7063 ****               0 ****  **** 
    323 PET            7085 ****               0 ****  **** 
    324 PET            7107 ****               0 ****  **** 
    325 PET            7129 ****               0 ****  **** 
    326 PET            7151 ****               0 ****  **** 
    327 PET            7173 ****               0 ****  **** 
    328 PET            7195 ****               0 ****  **** 
    329 PET            7217 ****               0 ****  **** 
    330 PET            7239 ****               0 ****  **** 
    331 PET            7261 ****               0 ****  **** 
    332 PET            7283 ****               0 ****  **** 
    333 PET            7305 ****               0 ****  **** 
    334 PET            7327 ****               0 ****  **** 
    335 PET            7349 ****               0 ****  **** 
    336 PET            7371 ****               0 ****  **** 
    337 PET            7393 ****               0 ****  **** 
    338 PET            7415 ****               0 ****  **** 
    339 PET            7437 ****               0 ****  **** 
    340 PET            7459 ****               0 ****  **** 
    341 PET            7481 ****               0 ****  **** 
    342 PET            7503 ****               0 ****  **** 
    343 PET            7525 ****               0 ****  **** 
    344 PET            7547 ****               0 ****  **** 
    345 PET            7569 ****               0 ****  **** 
    346 PET            7591 ****               0 ****  **** 
    347 PET            7613 ****               0 ****  **** 
    348 PET            7635 ****               0 ****  **** 
    349 PET            7657 ****               0 ****  **** 
    350 PET            7679 ****               0 ****  **** 
    351 PET            7701 ****               0 ****  **** 
    352 PET            7723 ****               0 ****  **** 
    353 PET            7745 ****               0 ****  **** 
    354 PET            7767 ****               0 ****  **** 
    355 PET            7789 ****               0 ****  **** 
    356 PET            7811 ****               0 ****  **** 
    357 PET            7833 ****               0 ****  **** 
    358 PET            7855 ****               0 ****  **** 
    359 PET            7877 ****               0 ****  **** 
    360 PET            7899 ****               0 ****  **** 
    361 PET            7921 ****               0 ****  **** 
    362 PET            7943 ****               0 ****  **** 
    363 PET            7965 ****               0 ****  **** 
    364 PET            7987 ****               0 ****  **** 
    365 PET            8009 ****               0 ****  **** 
    366 PET            8031 ****               0 ****  **** 
    367 PET            8053 ****               0 ****  **** 
    368 PET            8075 ****               0 ****  **** 
    369 PET            8097 ****               0 ****  **** 
    370 PET            8119 ****               0 ****  **** 
    371 PET            8141 ****               0 ****  **** 
    372 PET            8163 ****               0 ****  **** 
    373 PET            8185 ****               0 ****  **** 
    374 PET            8207 ****               0 ****  **** 
    375 PET            8229 ****               0 ****  **** 
    376 PET            8251 ****               0 ****  **** 
    377 PET            8273 ****               0 ****  **** 
    378 PET            8295 ****               0 ****  **** 
    379 PET            8317 ****               0 ****  **** 
    380 PET            8339 ****               0 ****  **** 
    381 PET            8361 ****               0 ****  **** 
    382 PET            8383 ****               0 ****  **** 
    383 PET            8405 ****               0 ****  **** 
    384 PET            8427 ****               0 ****  **** 
    385 PET            8449 ****               0 ****  **** 
    386 PET            8471 ****               0 ****  **** 
    387 PET            8493 ****               0 ****  **** 
    388 PET            8515 ****               0 ****  **** 
    389 PET            8537 ****               0 ****  **** 
    390 PET            8559 ****               0 ****  **** 
    391 PET            8581 ****               0 ****  **** 
    392 PET            8603 ****               0 ****  **** 
    393 PET            8625 ****               0 ****  **** 
    394 PET            8647 ****               0 ****  **** 
    395 PET            8669 ****               0 ****  **** 
    396 PET            8691 ****               0 ****  **** 
    397 PET            8713 ****               0 ****  **** 
    398 PET            8735 ****               0 ****  **** 
    399 PET            8757 ****               0 ****  **** 
    400 PET            8779 ****               0 ****  **** 
    401 PET            8801 ****               0 ****  **** 
    402 PET            8823 ****               0 ****  **** 
    403 PET            8845 ****               0 ****  **** 
    404 PET            8867 ****               0 ****  **** 
    405 PET            8889 ****               0 ****  **** 
    406 PET            8911 ****               0 ****  **** 
    407 PET            8933 ****               0 ****  **** 
    408 PET            8955 ****               0 ****  **** 
    409 PET            8977 ****               0 ****  **** 
    410 PET            8999 ****               0 ****  **** 
    411 PET            9021 ****               0 ****  **** 
    412 PET            9043 ****               0 ****  **** 
    413 PET            9065 ****               0 ****  **** 
    414 PET            9087 ****               0 ****  **** 
    415 PET            9109 ****               0 ****  **** 
    416 PET            9131 ****               0 ****  **** 
    417 PET            9153 ****               0 ****  **** 
    418 PET            9175 ****               0 ****  **** 
    419 PET            9197 ****               0 ****  **** 
    420 PET            9219 ****               0 ****  **** 
    421 PET            9241 ****               0 ****  **** 
    422 PET            9263 ****               0 ****  **** 
    423 PET            9285 ****               0 ****  **** 
    424 PET            9307 ****               0 ****  **** 
    425 PET            9329 ****               0 ****  **** 
    426 PET            9351 ****               0 ****  **** 
    427 PET            9373 ****               0 ****  **** 
    428 PET            9395 ****               0 ****  **** 
    429 PET            9417 ****               0 ****  **** 
    430 PET            9439 ****               0 ****  **** 
    431 PET            9461 ****               0 ****  **** 
    432 PET            9483 ****               0 ****  **** 
    433 PET            9505 ****               0 ****  **** 
    434 PET            9527 ****               0 ****  **** 
    435 PET            9549 ****               0 ****  **** 
    436 PET            9571 ****               0 ****  **** 
    437 PET            9593 ****               0 ****  **** 
    438 PET            9615 ****               0 ****  **** 
    439 PET            9637 ****               0 ****  **** 
    440 PET            9659 ****               0 ****  **** 
    441 PET            9681 ****               0 ****  **** 
    442 PET            9703 ****               0 ****  **** 
    443 PET            9725 ****               0 ****  **** 
    444 PET            9747 ****               0 ****  **** 
    445 PET            9769 ****               0 ****  **** 
    446 PET            9791 ****               0 ****  **** 
    447 PET            9813 ****               0 ****  **** 
    448 PET            9835 ****               0 ****  **** 
    449 PET            9857 ****               0 ****  **** 
    450 PET            9879 ****               0 ****  **** 
    451 PET            9901 ****               0 ****  **** 
    452 PET            9923 ****               0 ****  **** 
    453 PET            9945 ****               0 ****  **** 
    454 PET            9967 ****               0 ****  **** 
    455 PET            9989 ****               0 ****  **** 
    456 PET           10011 ****               0 ****  **** 
    457 PET           10033 ****               0 ****  **** 
    458 PET           10055 ****               0 ****  **** 
    459 PET           10077 ****               0 ****  **** 
    460 PET           10099 ****               0 ****  **** 
    461 PET           10121 ****               0 ****  **** 
    462 PET           10143 ****               0 ****  **** 
    463 PET           10165 ****               0 ****  **** 
    464 PET           10187 ****               0 ****  **** 
    465 PET           10209 ****               0 ****  **** 
    466 PET           10231 ****               0 ****  **** 
    467 PET           10253 ****               0 ****  **** 
    468 PET           10275 ****               0 ****  **** 
    469 PET           10297 ****               0 ****  **** 
    470 PET           10319 ****               0 ****  **** 
    471 PET           10341 ****               0 ****  **** 
    472 PET           10363 ****               0 ****  **** 
    473 PET           10385 ****               0 ****  **** 
    474 PET           10407 ****               0 ****  **** 
    475 PET           10429 ****               0 ****  **** 
    476 PET           10451 ****               0 ****  **** 
    477 PET           10473 ****               0 ****  **** 
    478 PET           10495 ****               0 ****  **** 
    479 PET           10517 ****               0 ****  **** 
    480 PET           10539 ****               0 ****  **** 
    481 PET           10561 ****               0 ****  **** 
    482 PET           10583 ****               0 ****  **** 
    483 PET           10605 ****               0 ****  **** 
    484 PET           10627 ****               0 ****  **** 
    485 PET           10649 ****               0 ****  **** 
    486 PET           10671 ****               0 ****  **** 
    487 PET           10693 ****               0 ****  **** 
    488 PET           10715 ****               0 ****  **** 
    489 PET           10737 ****               0 ****  **** 
    490 PET           10759 ****               0 ****  **** 
    491 PET           10781 ****               0 ****  **** 
    492 PET           10803 ****               0 ****  **** 
    493 PET           10825 ****               0 ****  **** 
    494 PET           10847 ****               0 ****  **** 
    495 PET           10869 ****               0 ****  **** 
    496 PET           10891 ****               0 ****  **** 
    497 PET           10913 ****               0 ****  **** 
    498 PET           10935 ****               0 ****  **** 
    499 PET           10957 ****               0 ****  **** 
    500 PET           10979 ****               0 ****  **** 
    501 PET           11001 ****               0 ****  **** 
    502 PET           11023 ****               0 ****  **** 
    503 PET           11045 ****               0 ****  **** 
    504 PET           11067 ****               0 ****  **** 
    505 PET           11089 ****               0 ****  **** 
    506 PET           11111 ****               0 ****  **** 
    507 PET           11133 ****               0 ****  **** 
    508 PET           11155 ****               0 ****  **** 
    509 PET           11177 ****               0 ****  **** 
    510 PET           11199 ****               0 ****  **** 
    511 PET           11221 ****               0 ****  **** 
    512 PET           11243 ****               0 ****  **** 
    513 PET           11265 ****               0 ****  **** 
    514 PET           11287 ****               0 ****  **** 
    515 PET           11309 ****               0 ****  **** 
    516 PET           11331 ****               0 ****  **** 
    517 PET           11353 ****               0 ****  **** 
    518 PET           11375 ****               0 ****  **** 
    519 PET           11397 ****               0 ****  **** 
    520 PET           11419 ****               0 ****  **** 
    521 PET           11441 ****               0 ****  **** 
    522 PET           11463 ****               0 ****  **** 
    523 PET           11485 ****               0 ****  **** 
    524 PET           11507 ****               0 ****  **** 
    525 PET           11529 ****               0 ****  **** 
    526 PET           11551 ****               0 ****  **** 
    527 PET           11573 ****               0 ****  **** 
    528 PET           11595 ****               0 ****  **** 
    529 PET           11617 ****               0 ****  **** 
    530 PET           11639 ****               0 ****  **** 
    531 PET           11661 ****               0 ****  **** 
    532 PET           11683 ****               0 ****  **** 
    533 PET           11705 ****               0 ****  **** 
    534 PET           11727 ****               0 ****  **** 
    535 PET           11749 ****               0 ****  **** 
    536 PET           11771 ****               0 ****  **** 
    537 PET           11793 ****               0 ****  **** 
    538 PET           11815 ****               0 ****  **** 
    539 PET           11837 ****               0 ****  **** 
    540 PET           11859 ****               0 ****  **** 
