@<TRIPOS>MOLECULE
Cpptraj generated mol2 file.
11520 12216   720     0     0
SMALL
USER_CHARGES


@<TRIPOS>ATOM
      1 C2         -0.4240  -24.5220    5.8770 c3         1 PS       0.031000
      2 C1         -1.3240  -25.1420    6.9770 c3         1 PS       0.000400
      3 CG         -2.8340  -25.1920    6.6470 ca         1 PS       0.250900
      4 CD1        -3.3040  -25.0220    5.3170 ca         1 PS      -0.270200
      5 CE1        -4.6440  -25.3720    4.9670 ca         1 PS      -0.050500
      6 CZ         -5.6340  -25.6820    5.9470 ca         1 PS      -0.188800
      7 CE2        -5.2140  -25.7620    7.2670 ca         1 PS      -0.050500
      8 CD2        -3.7840  -25.5820    7.5770 ca         1 PS      -0.270200
      9 H21        -0.3140  -25.1520    4.9870 hc         1 PS      -0.016200
     10 H22         0.6060  -24.2820    6.1470 hc         1 PS      -0.016200
     11 H1         -1.2640  -24.5020    7.8670 hc         1 PS      -0.005300
     12 HD1        -2.5740  -24.7520    4.5570 ha         1 PS       0.124600
     13 HE1        -4.8940  -25.2420    3.9170 ha         1 PS       0.105800
     14 HZ         -6.6440  -25.9720    5.6570 ha         1 PS       0.124800
     15 HE2        -5.8840  -26.0120    8.0870 ha         1 PS       0.105800
     16 HD2        -3.4540  -25.6820    8.6170 ha         1 PS       0.124600
     17 C2         -0.6640  -26.4920    7.3870 c3         2 PS       0.031000
     18 C1         -1.0140  -27.7420    6.5370 c3         2 PS       0.000400
     19 CG         -0.3040  -27.7920    5.1270 ca         2 PS       0.250900
     20 CD1        -1.1240  -27.7620    3.9370 ca         2 PS      -0.270200
     21 CE1        -0.5840  -27.8820    2.6870 ca         2 PS      -0.050500
     22 CZ          0.7660  -27.9820    2.4770 ca         2 PS      -0.188800
     23 CE2         1.6060  -28.0520    3.6170 ca         2 PS      -0.050500
     24 CD2         1.0660  -28.0420    4.8870 ca         2 PS      -0.270200
     25 H21         0.4260  -26.5320    7.4770 hc         2 PS      -0.016200
     26 H22        -0.9440  -26.5420    8.4470 hc         2 PS      -0.016200
     27 H1         -2.1040  -27.8520    6.4270 hc         2 PS      -0.005300
     28 HD1        -2.2040  -27.6820    3.8470 ha         2 PS       0.124600
     29 HE1        -1.2540  -27.9220    1.8270 ha         2 PS       0.105800
     30 HZ          1.1660  -28.2020    1.4870 ha         2 PS       0.124800
     31 HE2         2.6860  -28.0220    3.4970 ha         2 PS       0.105800
     32 HD2         1.6260  -28.2320    5.7970 ha         2 PS       0.124600
     33 C2         -0.6440  -28.9620    7.4570 c3         3 PS       0.031000
     34 C1         -0.9140  -30.3820    6.8170 c3         3 PS       0.000400
     35 CG          0.4360  -31.0820    6.5570 ca         3 PS       0.250900
     36 CD1         1.3360  -31.3820    7.6670 ca         3 PS      -0.270200
     37 CE1         2.6960  -31.7720    7.4170 ca         3 PS      -0.050500
     38 CZ          3.1460  -31.7120    6.0870 ca         3 PS      -0.188800
     39 CE2         2.2660  -31.3120    5.0470 ca         3 PS      -0.050500
     40 CD2         0.9560  -30.9720    5.3170 ca         3 PS      -0.270200
     41 H21         0.4260  -28.8720    7.6570 hc         3 PS      -0.016200
     42 H22        -1.1940  -28.8620    8.4070 hc         3 PS      -0.016200
     43 H1         -1.2740  -30.1920    5.8070 hc         3 PS      -0.005300
     44 HD1         1.0460  -31.2420    8.7070 ha         3 PS       0.124600
     45 HE1         3.3860  -31.9420    8.2370 ha         3 PS       0.105800
     46 HZ          4.2160  -31.8220    5.9170 ha         3 PS       0.124800
     47 HE2         2.6360  -31.1020    4.0370 ha         3 PS       0.105800
     48 HD2         0.3760  -30.5120    4.5170 ha         3 PS       0.124600
     49 C2         -1.8840  -31.2620    7.5170 c3         4 PS       0.031000
     50 C1         -2.7840  -32.1220    6.5470 c3         4 PS       0.000400
     51 CG         -3.5540  -31.1620    5.6270 ca         4 PS       0.250900
     52 CD1        -3.1740  -31.0420    4.2470 ca         4 PS      -0.270200
     53 CE1        -3.8940  -30.1520    3.4570 ca         4 PS      -0.050500
     54 CZ         -4.8240  -29.3020    4.0970 ca         4 PS      -0.188800
     55 CE2        -5.1940  -29.4120    5.4670 ca         4 PS      -0.050500
     56 CD2        -4.5540  -30.3320    6.2170 ca         4 PS      -0.270200
     57 H21        -1.1840  -31.9520    8.0170 hc         4 PS      -0.016200
     58 H22        -2.4640  -30.7020    8.2570 hc         4 PS      -0.016200
     59 H1         -2.1740  -32.6920    5.8370 hc         4 PS      -0.005300
     60 HD1        -2.3840  -31.6720    3.8670 ha         4 PS       0.124600
     61 HE1        -3.5840  -30.0420    2.4270 ha         4 PS       0.105800
     62 HZ         -5.3040  -28.6520    3.3770 ha         4 PS       0.124800
     63 HE2        -5.9740  -28.8120    5.9270 ha         4 PS       0.105800
     64 HD2        -4.7540  -30.3520    7.2770 ha         4 PS       0.124600
     65 C2         -3.7840  -33.1220    7.1870 c3         5 PS       0.031000
     66 C1         -4.4340  -34.1820    6.1470 c3         5 PS       0.000400
     67 CG         -3.7840  -35.5820    6.1670 ca         5 PS       0.250900
     68 CD1        -2.8340  -35.9720    5.1670 ca         5 PS      -0.270200
     69 CE1        -2.1940  -37.2420    5.1570 ca         5 PS      -0.050500
     70 CZ         -2.5940  -38.1220    6.1970 ca         5 PS      -0.188800
     71 CE2        -3.5140  -37.8120    7.1370 ca         5 PS      -0.050500
     72 CD2        -4.0040  -36.4920    7.1970 ca         5 PS      -0.270200
     73 H21        -3.2740  -33.7620    7.9270 hc         5 PS      -0.016200
     74 H22        -4.5240  -32.6020    7.8070 hc         5 PS      -0.016200
     75 H1         -4.3540  -33.6920    5.1670 hc         5 PS      -0.005300
     76 HD1        -2.5440  -35.2120    4.4470 ha         5 PS       0.124600
     77 HE1        -1.5540  -37.4820    4.3170 ha         5 PS       0.105800
     78 HZ         -2.2340  -39.1320    6.0570 ha         5 PS       0.124800
     79 HE2        -3.8040  -38.5120    7.9170 ha         5 PS       0.105800
     80 HD2        -4.7240  -36.1620    7.9370 ha         5 PS       0.124600
     81 C2         -5.9340  -34.2720    6.6170 c3         6 PS       0.031000
     82 C1         -6.8240  -33.1020    6.2170 c3         6 PS       0.000400
     83 CG         -6.9140  -32.7420    4.6870 ca         6 PS       0.250900
     84 CD1        -7.3240  -31.4220    4.3670 ca         6 PS      -0.270200
     85 CE1        -7.5040  -31.0820    2.9770 ca         6 PS      -0.050500
     86 CZ         -7.0640  -31.9520    1.9970 ca         6 PS      -0.188800
     87 CE2        -6.6940  -33.2620    2.3570 ca         6 PS      -0.050500
     88 CD2        -6.6540  -33.6820    3.6670 ca         6 PS      -0.270200
     89 H21        -6.3940  -35.1420    6.1370 hc         6 PS      -0.016200
     90 H22        -6.0240  -34.3920    7.7070 hc         6 PS      -0.016200
     91 H1         -6.3640  -32.2620    6.7570 hc         6 PS      -0.005300
     92 HD1        -7.5640  -30.6820    5.1270 ha         6 PS       0.124600
     93 HE1        -7.8440  -30.0920    2.6970 ha         6 PS       0.105800
     94 HZ         -7.0240  -31.6320    0.9670 ha         6 PS       0.124800
     95 HE2        -6.4940  -33.9720    1.5570 ha         6 PS       0.105800
     96 HD2        -6.4240  -34.7320    3.8270 ha         6 PS       0.124600
     97 C2         -8.2740  -33.2520    6.8970 c3         7 PS       0.031000
     98 C1         -9.2740  -34.2720    6.1870 c3         7 PS       0.000400
     99 CG         -8.7640  -35.7420    6.1770 ca         7 PS       0.250900
    100 CD1        -8.4640  -36.3420    4.9170 ca         7 PS      -0.270200
    101 CE1        -7.9240  -37.6320    4.8470 ca         7 PS      -0.050500
    102 CZ         -7.6440  -38.2820    6.0570 ca         7 PS      -0.188800
    103 CE2        -7.8240  -37.6620    7.3270 ca         7 PS      -0.050500
    104 CD2        -8.4740  -36.4320    7.3670 ca         7 PS      -0.270200
    105 H21        -8.2840  -33.4020    7.9770 hc         7 PS      -0.016200
    106 H22        -8.7140  -32.2420    6.8570 hc         7 PS      -0.016200
    107 H1         -9.4640  -33.9120    5.1670 hc         7 PS      -0.005300
    108 HD1        -8.7840  -35.8520    4.0070 ha         7 PS       0.124600
    109 HE1        -7.7640  -38.1820    3.9170 ha         7 PS       0.105800
    110 HZ         -7.1840  -39.2620    6.0970 ha         7 PS       0.124800
    111 HE2        -7.7340  -38.2720    8.2270 ha         7 PS       0.105800
    112 HD2        -8.6640  -35.9220    8.3070 ha         7 PS       0.124600
    113 C2        -10.6440  -34.2320    6.9470 c3         8 PS       0.031000
    114 C1        -11.6540  -33.2120    6.4170 c3         8 PS       0.000400
    115 CG        -11.1140  -31.6820    6.5470 ca         8 PS       0.250900
    116 CD1       -10.5940  -31.0220    5.4170 ca         8 PS      -0.270200
    117 CE1       -10.0340  -29.7320    5.4970 ca         8 PS      -0.050500
    118 CZ         -9.8340  -29.2220    6.7770 ca         8 PS      -0.188800
    119 CE2       -10.2140  -29.9020    7.9270 ca         8 PS      -0.050500
    120 CD2       -10.8940  -31.1520    7.8070 ca         8 PS      -0.270200
    121 H21       -11.0940  -35.2220    6.8470 hc         8 PS      -0.016200
    122 H22       -10.5940  -34.1520    8.0370 hc         8 PS      -0.016200
    123 H1        -11.8140  -33.5220    5.3770 hc         8 PS      -0.005300
    124 HD1       -10.6040  -31.5420    4.4570 ha         8 PS       0.124600
    125 HE1        -9.7140  -29.2420    4.5870 ha         8 PS       0.105800
    126 HZ         -9.3940  -28.2320    6.9070 ha         8 PS       0.124800
    127 HE2       -10.0040  -29.3320    8.8270 ha         8 PS       0.105800
    128 HD2       -11.1540  -31.6220    8.7470 ha         8 PS       0.124600
    129 C2        -12.9740  -33.2120    7.2170 c3         9 PS       0.031000
    130 C1        -14.3040  -33.0220    6.2870 c3         9 PS       0.000400
    131 CG        -14.6740  -34.2720    5.3670 ca         9 PS       0.250900
    132 CD1       -15.3440  -33.9920    4.1770 ca         9 PS      -0.270200
    133 CE1       -15.7040  -35.0220    3.3170 ca         9 PS      -0.050500
    134 CZ        -15.4340  -36.3720    3.7070 ca         9 PS      -0.188800
    135 CE2       -14.7040  -36.6720    4.8970 ca         9 PS      -0.050500
    136 CD2       -14.2340  -35.5920    5.6270 ca         9 PS      -0.270200
    137 H21       -13.0640  -34.0220    7.9570 hc         9 PS      -0.016200
    138 H22       -12.9740  -32.4320    7.9770 hc         9 PS      -0.016200
    139 H1        -14.1040  -32.2320    5.5470 hc         9 PS      -0.005300
    140 HD1       -15.5840  -32.9620    3.9070 ha         9 PS       0.124600
    141 HE1       -16.3040  -34.8920    2.4170 ha         9 PS       0.105800
    142 HZ        -15.7740  -37.1920    3.0870 ha         9 PS       0.124800
    143 HE2       -14.4940  -37.7020    5.1370 ha         9 PS       0.105800
    144 HD2       -13.7540  -35.8220    6.5770 ha         9 PS       0.124600
    145 C2        -15.4340  -32.5420    7.2470 c3        10 PS       0.031000
    146 C1        -16.8440  -32.9520    6.9270 c3        10 PS       0.000400
    147 CG        -17.0740  -34.5320    7.0970 ca        10 PS       0.250900
    148 CD1       -18.1940  -35.1720    6.5270 ca        10 PS      -0.270200
    149 CE1       -18.4740  -36.5620    6.6870 ca        10 PS      -0.050500
    150 CZ        -17.5540  -37.3520    7.3670 ca        10 PS      -0.188800
    151 CE2       -16.4840  -36.7620    8.1170 ca        10 PS      -0.050500
    152 CD2       -16.2540  -35.3220    7.9470 ca        10 PS      -0.270200
    153 H21       -15.1840  -32.8620    8.2670 hc        10 PS      -0.016200
    154 H22       -15.3740  -31.4420    7.2870 hc        10 PS      -0.016200
    155 H1        -17.0840  -32.6220    5.9070 hc        10 PS      -0.005300
    156 HD1       -18.8540  -34.5220    5.9470 ha        10 PS       0.124600
    157 HE1       -19.3340  -36.9920    6.1870 ha        10 PS       0.105800
    158 HZ        -17.6840  -38.4320    7.3970 ha        10 PS       0.124800
    159 HE2       -15.7740  -37.4620    8.5470 ha        10 PS       0.105800
    160 HD2       -15.3540  -35.0220    8.4770 ha        10 PS       0.124600
    161 C2        -17.8140  -32.2620    7.8870 c3        11 PS       0.031000
    162 C1        -18.7540  -31.1520    7.2270 c3        11 PS       0.000400
    163 CG        -19.9540  -31.7620    6.5770 ca        11 PS       0.250900
    164 CD1       -21.0840  -31.9320    7.3370 ca        11 PS      -0.270200
    165 CE1       -22.2040  -32.4720    6.8370 ca        11 PS      -0.050500
    166 CZ        -22.3140  -32.7420    5.4670 ca        11 PS      -0.188800
    167 CE2       -21.2340  -32.5120    4.5970 ca        11 PS      -0.050500
    168 CD2       -20.0140  -32.0720    5.1770 ca        11 PS      -0.270200
    169 H21       -18.3840  -33.0020    8.4570 hc        11 PS      -0.016200
    170 H22       -17.2140  -31.7620    8.6570 hc        11 PS      -0.016200
    171 H1        -19.1840  -30.6120    8.0770 hc        11 PS      -0.005300
    172 HD1       -21.1140  -31.7520    8.4070 ha        11 PS       0.124600
    173 HE1       -23.0740  -32.6620    7.4570 ha        11 PS       0.105800
    174 HZ        -23.2740  -33.0520    5.0670 ha        11 PS       0.124800
    175 HE2       -21.2840  -32.7420    3.5370 ha        11 PS       0.105800
    176 HD2       -19.1740  -31.7620    4.5670 ha        11 PS       0.124600
    177 C2        -17.9840  -30.0220    6.4870 c3        12 PS       0.031000
    178 C1        -18.7040  -28.6120    6.7570 c3        12 PS       0.000400
    179 CG        -20.2340  -28.6620    6.6070 ca        12 PS       0.250900
    180 CD1       -20.9440  -29.1920    5.5170 ca        12 PS      -0.270200
    181 CE1       -22.3540  -29.3120    5.4870 ca        12 PS      -0.050500
    182 CZ        -23.1540  -28.8420    6.5770 ca        12 PS      -0.188800
    183 CE2       -22.4540  -28.1720    7.5870 ca        12 PS      -0.050500
    184 CD2       -21.0140  -28.0620    7.5970 ca        12 PS      -0.270200
    185 H21       -16.9640  -29.8720    6.8670 hc        12 PS      -0.016200
    186 H22       -17.8940  -30.2120    5.4070 hc        12 PS      -0.016200
    187 H1        -18.5240  -28.2020    7.7570 hc        12 PS      -0.005300
    188 HD1       -20.3540  -29.6520    4.7270 ha        12 PS       0.124600
    189 HE1       -22.9340  -29.7420    4.6770 ha        12 PS       0.105800
    190 HZ        -24.2440  -28.8920    6.6170 ha        12 PS       0.124800
    191 HE2       -22.9640  -27.7720    8.4570 ha        12 PS       0.105800
    192 HD2       -20.5840  -27.6020    8.4870 ha        12 PS       0.124600
    193 C2        -18.1040  -27.6120    5.6970 c3        13 PS       0.031000
    194 C1        -17.1240  -26.5520    6.2270 c3        13 PS       0.000400
    195 CG        -15.7440  -27.2220    6.6270 ca        13 PS       0.250900
    196 CD1       -15.0440  -26.5320    7.6170 ca        13 PS      -0.270200
    197 CE1       -13.7640  -26.9320    8.0670 ca        13 PS      -0.050500
    198 CZ        -13.1340  -28.0220    7.4470 ca        13 PS      -0.188800
    199 CE2       -13.7940  -28.7020    6.3870 ca        13 PS      -0.050500
    200 CD2       -15.1140  -28.3220    6.0170 ca        13 PS      -0.270200
    201 H21       -17.6140  -28.1820    4.8970 hc        13 PS      -0.016200
    202 H22       -18.9340  -27.1120    5.1870 hc        13 PS      -0.016200
    203 H1        -17.6340  -26.1420    7.1070 hc        13 PS      -0.005300
    204 HD1       -15.3840  -25.6220    8.1070 ha        13 PS       0.124600
    205 HE1       -13.1740  -26.3120    8.7270 ha        13 PS       0.105800
    206 HZ        -12.1640  -28.3820    7.7870 ha        13 PS       0.124800
    207 HE2       -13.2740  -29.5420    5.9370 ha        13 PS       0.105800
    208 HD2       -15.6040  -28.8020    5.1770 ha        13 PS       0.124600
    209 C2        -16.9040  -25.4220    5.1970 c3        14 PS       0.031000
    210 C1        -17.7140  -24.1020    5.4370 c3        14 PS       0.000400
    211 CG        -17.9840  -23.3820    4.0370 ca        14 PS       0.250900
    212 CD1       -19.1940  -23.6220    3.3470 ca        14 PS      -0.270200
    213 CE1       -19.4440  -23.0020    2.1370 ca        14 PS      -0.050500
    214 CZ        -18.4940  -22.2320    1.5670 ca        14 PS      -0.188800
    215 CE2       -17.1940  -22.0720    2.1870 ca        14 PS      -0.050500
    216 CD2       -16.9540  -22.6220    3.4470 ca        14 PS      -0.270200
    217 H21       -15.8340  -25.2020    5.0470 hc        14 PS      -0.016200
    218 H22       -17.1440  -25.8820    4.2270 hc        14 PS      -0.016200
    219 H1        -18.7540  -24.3120    5.7170 hc        14 PS      -0.005300
    220 HD1       -19.9640  -24.2120    3.8370 ha        14 PS       0.124600
    221 HE1       -20.3840  -23.1920    1.6370 ha        14 PS       0.105800
    222 HZ        -18.6340  -21.8820    0.5470 ha        14 PS       0.124800
    223 HE2       -16.4340  -21.4920    1.6770 ha        14 PS       0.105800
    224 HD2       -16.0340  -22.3320    3.9570 ha        14 PS       0.124600
    225 C2        -17.1140  -23.1920    6.5670 c3        15 PS       0.031000
    226 C1        -18.0640  -21.9720    6.7970 c3        15 PS       0.000400
    227 CG        -17.2740  -20.8420    7.3770 ca        15 PS       0.250900
    228 CD1       -17.5040  -19.6020    6.8470 ca        15 PS      -0.270200
    229 CE1       -16.7040  -18.5220    7.1370 ca        15 PS      -0.050500
    230 CZ        -15.5740  -18.6720    7.8370 ca        15 PS      -0.188800
    231 CE2       -15.1440  -19.9220    8.2770 ca        15 PS      -0.050500
    232 CD2       -16.0540  -21.0020    8.1170 ca        15 PS      -0.270200
    233 H21       -17.1740  -23.7920    7.4770 hc        15 PS      -0.016200
    234 H22       -16.1040  -22.8720    6.2670 hc        15 PS      -0.016200
    235 H1        -18.4040  -21.5820    5.8270 hc        15 PS      -0.005300
    236 HD1       -18.4140  -19.3220    6.3170 ha        15 PS       0.124600
    237 HE1       -17.0940  -17.5420    6.8670 ha        15 PS       0.105800
    238 HZ        -14.9340  -17.8020    8.0070 ha        15 PS       0.124800
    239 HE2       -14.1640  -20.1120    8.6970 ha        15 PS       0.105800
    240 HD2       -15.7940  -21.9820    8.5170 ha        15 PS       0.124600
    241 C2        -19.3140  -22.3020    7.6470 c3        16 PS       0.031000
    242 C1        -20.6240  -22.2220    6.8170 c3        16 PS       0.000400
    243 CG        -20.8540  -20.7620    6.2870 ca        16 PS       0.250900
    244 CD1       -20.7540  -20.4920    4.8970 ca        16 PS      -0.270200
    245 CE1       -21.0240  -19.1320    4.4970 ca        16 PS      -0.050500
    246 CZ        -21.2940  -18.1220    5.4070 ca        16 PS      -0.188800
    247 CE2       -21.2940  -18.4220    6.7870 ca        16 PS      -0.050500
    248 CD2       -21.2640  -19.7820    7.1770 ca        16 PS      -0.270200
    249 H21       -19.2140  -23.3220    8.0370 hc        16 PS      -0.016200
    250 H22       -19.4540  -21.8020    8.6170 hc        16 PS      -0.016200
    251 H1        -20.5440  -22.9520    6.0070 hc        16 PS      -0.005300
    252 HD1       -20.4640  -21.2720    4.1970 ha        16 PS       0.124600
    253 HE1       -21.0540  -18.8820    3.4370 ha        16 PS       0.105800
    254 HZ        -21.4040  -17.1420    4.9570 ha        16 PS       0.124800
    255 HE2       -21.4940  -17.6020    7.4770 ha        16 PS       0.105800
    256 HD2       -21.3040  -19.9620    8.2370 ha        16 PS       0.124600
    257 C2        -21.8540  -22.6520    7.6170 c3        17 PS       0.031000
    258 C1        -23.2040  -22.6820    6.8270 c3        17 PS       0.000400
    259 CG        -23.0440  -23.5320    5.5670 ca        17 PS       0.250900
    260 CD1       -23.1540  -22.9520    4.2970 ca        17 PS      -0.270200
    261 CE1       -23.0740  -23.7820    3.1470 ca        17 PS      -0.050500
    262 CZ        -22.8840  -25.1720    3.3270 ca        17 PS      -0.188800
    263 CE2       -22.6440  -25.6820    4.6170 ca        17 PS      -0.050500
    264 CD2       -22.6340  -24.8520    5.7470 ca        17 PS      -0.270200
    265 H21       -21.6840  -23.6620    7.9970 hc        17 PS      -0.016200
    266 H22       -21.9140  -22.0020    8.4970 hc        17 PS      -0.016200
    267 H1        -23.4840  -21.6820    6.4570 hc        17 PS      -0.005300
    268 HD1       -23.5140  -21.9320    4.2170 ha        17 PS       0.124600
    269 HE1       -23.3140  -23.3620    2.1670 ha        17 PS       0.105800
    270 HZ        -23.0840  -25.8520    2.4970 ha        17 PS       0.124800
    271 HE2       -22.6440  -26.7520    4.7470 ha        17 PS       0.105800
    272 HD2       -22.5040  -25.3420    6.7070 ha        17 PS       0.124600
    273 C2        -24.3740  -23.2420    7.6570 c3        18 PS       0.031000
    274 C1        -25.6840  -23.6020    6.8270 c3        18 PS       0.000400
    275 CG        -26.2340  -22.3820    6.1170 ca        18 PS       0.250900
    276 CD1       -26.2340  -22.2820    4.7370 ca        18 PS      -0.270200
    277 CE1       -26.8340  -21.1920    4.0270 ca        18 PS      -0.050500
    278 CZ        -27.2840  -20.1320    4.7970 ca        18 PS      -0.188800
    279 CE2       -27.3740  -20.1620    6.1970 ca        18 PS      -0.050500
    280 CD2       -26.8340  -21.3220    6.8570 ca        18 PS      -0.270200
    281 H21       -23.9840  -24.1020    8.2070 hc        18 PS      -0.016200
    282 H22       -24.6340  -22.5320    8.4470 hc        18 PS      -0.016200
    283 H1        -25.3340  -24.3520    6.1070 hc        18 PS      -0.005300
    284 HD1       -25.7240  -23.1020    4.2370 ha        18 PS       0.124600
    285 HE1       -26.8240  -21.2420    2.9470 ha        18 PS       0.105800
    286 HZ        -27.6040  -19.2120    4.3070 ha        18 PS       0.124800
    287 HE2       -27.7840  -19.3220    6.7370 ha        18 PS       0.105800
    288 HD2       -26.9840  -21.4220    7.9270 ha        18 PS       0.124600
    289 C2        -26.7540  -24.3620    7.8070 c3        19 PS       0.031000
    290 C1        -28.0340  -24.8720    7.0970 c3        19 PS       0.000400
    291 CG        -28.9440  -23.7020    6.7070 ca        19 PS       0.250900
    292 CD1       -29.1340  -23.3720    5.3370 ca        19 PS      -0.270200
    293 CE1       -29.9040  -22.2620    5.0370 ca        19 PS      -0.050500
    294 CZ        -30.5540  -21.5020    6.0470 ca        19 PS      -0.188800
    295 CE2       -30.3740  -21.8020    7.3770 ca        19 PS      -0.050500
    296 CD2       -29.4840  -22.8220    7.6970 ca        19 PS      -0.270200
    297 H21       -26.2540  -25.2220    8.2770 hc        19 PS      -0.016200
    298 H22       -26.9940  -23.6720    8.6270 hc        19 PS      -0.016200
    299 H1        -27.6540  -25.2920    6.1570 hc        19 PS      -0.005300
    300 HD1       -28.6640  -23.9620    4.5570 ha        19 PS       0.124600
    301 HE1       -30.0040  -22.0220    3.9770 ha        19 PS       0.105800
    302 HZ        -31.0140  -20.5720    5.7170 ha        19 PS       0.124800
    303 HE2       -30.7640  -21.1820    8.1770 ha        19 PS       0.105800
    304 HD2       -29.2740  -23.1020    8.7270 ha        19 PS       0.124600
    305 C2        -28.8940  -25.8920    7.8970 c3        20 PS       0.031000
    306 C1        -29.7940  -26.6920    6.9170 c3        20 PS       0.000400
    307 CG        -28.9940  -27.4720    5.8670 ca        20 PS       0.250900
    308 CD1       -28.1240  -28.5120    6.2570 ca        20 PS      -0.270200
    309 CE1       -27.4440  -29.2220    5.2670 ca        20 PS      -0.050500
    310 CZ        -27.5640  -28.8620    3.9670 ca        20 PS      -0.188800
    311 CE2       -28.3740  -27.8020    3.5670 ca        20 PS      -0.050500
    312 CD2       -29.0740  -27.0820    4.5270 ca        20 PS      -0.270200
    313 H21       -28.1940  -26.5820    8.3770 hc        20 PS      -0.016200
    314 H22       -29.5440  -25.3320    8.5770 hc        20 PS      -0.016200
    315 H1        -30.3340  -25.8820    6.4170 hc        20 PS      -0.005300
    316 HD1       -28.1840  -28.9120    7.2570 ha        20 PS       0.124600
    317 HE1       -26.9540  -30.1220    5.6170 ha        20 PS       0.105800
    318 HZ        -26.9940  -29.4720    3.2770 ha        20 PS       0.124800
    319 HE2       -28.5340  -27.6220    2.5070 ha        20 PS       0.105800
    320 HD2       -29.7440  -26.2720    4.2470 ha        20 PS       0.124600
    321 C2        -30.7940  -27.6720    7.6870 c3        21 PS       0.031000
    322 C1        -31.9840  -27.9820    6.7470 c3        21 PS       0.000400
    323 CG        -32.9740  -26.8320    6.8170 ca        21 PS       0.250900
    324 CD1       -33.9640  -26.7520    7.8070 ca        21 PS      -0.270200
    325 CE1       -34.8540  -25.6920    7.8770 ca        21 PS      -0.050500
    326 CZ        -34.7440  -24.7020    6.9070 ca        21 PS      -0.188800
    327 CE2       -33.8740  -24.8220    5.8170 ca        21 PS      -0.050500
    328 CD2       -32.9640  -25.9220    5.7770 ca        21 PS      -0.270200
    329 H21       -30.2740  -28.5520    8.0870 hc        21 PS      -0.016200
    330 H22       -31.1140  -27.1820    8.6170 hc        21 PS      -0.016200
    331 H1        -31.5540  -28.1320    5.7470 hc        21 PS      -0.005300
    332 HD1       -33.9140  -27.4620    8.6270 ha        21 PS       0.124600
    333 HE1       -35.6540  -25.6720    8.6070 ha        21 PS       0.105800
    334 HZ        -35.4040  -23.8420    6.9970 ha        21 PS       0.124800
    335 HE2       -33.9040  -24.1220    4.9870 ha        21 PS       0.105800
    336 HD2       -32.2740  -25.9620    4.9370 ha        21 PS       0.124600
    337 C2        -32.7540  -29.3020    7.1170 c3        22 PS       0.031000
    338 C1        -32.4540  -30.5120    6.1570 c3        22 PS       0.000400
    339 CG        -31.1040  -31.1920    6.2670 ca        22 PS       0.250900
    340 CD1       -30.3840  -31.5720    5.0870 ca        22 PS      -0.270200
    341 CE1       -29.1440  -32.2120    5.2870 ca        22 PS      -0.050500
    342 CZ        -28.5840  -32.4920    6.5670 ca        22 PS      -0.188800
    343 CE2       -29.3740  -32.1420    7.6970 ca        22 PS      -0.050500
    344 CD2       -30.6340  -31.5120    7.5570 ca        22 PS      -0.270200
    345 H21       -32.5240  -29.6720    8.1270 hc        22 PS      -0.016200
    346 H22       -33.8240  -29.1120    7.0670 hc        22 PS      -0.016200
    347 H1        -32.5940  -30.0920    5.1470 hc        22 PS      -0.005300
    348 HD1       -30.7440  -31.2620    4.1070 ha        22 PS       0.124600
    349 HE1       -28.4640  -32.4520    4.4870 ha        22 PS       0.105800
    350 HZ        -27.6240  -32.9820    6.6370 ha        22 PS       0.124800
    351 HE2       -28.9940  -32.1920    8.7170 ha        22 PS       0.105800
    352 HD2       -31.0640  -31.1520    8.4970 ha        22 PS       0.124600
    353 C2        -33.4840  -31.6920    6.2970 c3        23 PS       0.031000
    354 C1        -34.9940  -31.4720    6.2170 c3        23 PS       0.000400
    355 CG        -35.6740  -32.8120    6.1370 ca        23 PS       0.250900
    356 CD1       -36.3840  -33.1520    7.2870 ca        23 PS      -0.270200
    357 CE1       -37.0940  -34.3220    7.3370 ca        23 PS      -0.050500
    358 CZ        -37.1040  -35.2420    6.3170 ca        23 PS      -0.188800
    359 CE2       -36.4740  -34.8620    5.1170 ca        23 PS      -0.050500
    360 CD2       -35.6740  -33.6820    5.0570 ca        23 PS      -0.270200
    361 H21       -33.2140  -32.4120    5.5170 hc        23 PS      -0.016200
    362 H22       -33.3240  -32.1920    7.2570 hc        23 PS      -0.016200
    363 H1        -35.2340  -31.0620    7.2070 hc        23 PS      -0.005300
    364 HD1       -36.4240  -32.3920    8.0570 ha        23 PS       0.124600
    365 HE1       -37.8840  -34.3820    8.0770 ha        23 PS       0.105800
    366 HZ        -37.8140  -36.0620    6.3670 ha        23 PS       0.124800
    367 HE2       -36.4940  -35.5120    4.2470 ha        23 PS       0.105800
    368 HD2       -35.0940  -33.5020    4.1570 ha        23 PS       0.124600
    369 C2        -35.4740  -30.4720    5.1470 c3        24 PS       0.031000
    370 C1        -36.6840  -29.5620    5.6470 c3        24 PS       0.000400
    371 CG        -37.9740  -30.3420    5.9170 ca        24 PS       0.250900
    372 CD1       -38.5340  -30.4320    7.2370 ca        24 PS      -0.270200
    373 CE1       -39.8140  -31.0320    7.4070 ca        24 PS      -0.050500
    374 CZ        -40.4540  -31.6720    6.3470 ca        24 PS      -0.188800
    375 CE2       -39.9840  -31.5020    5.0370 ca        24 PS      -0.050500
    376 CD2       -38.7340  -30.8320    4.7770 ca        24 PS      -0.270200
    377 H21       -34.6940  -29.7620    4.8570 hc        24 PS      -0.016200
    378 H22       -35.7540  -31.0420    4.2570 hc        24 PS      -0.016200
    379 H1        -36.2840  -29.1620    6.5870 hc        24 PS      -0.005300
    380 HD1       -38.0640  -29.9320    8.0770 ha        24 PS       0.124600
    381 HE1       -40.2340  -31.0920    8.4070 ha        24 PS       0.105800
    382 HZ        -41.3340  -32.2620    6.5670 ha        24 PS       0.124800
    383 HE2       -40.6240  -31.8220    4.2170 ha        24 PS       0.105800
    384 HD2       -38.5540  -30.5320    3.7570 ha        24 PS       0.124600
    385 C2        -36.7840  -28.3020    4.6670 c3        25 PS       0.031000
    386 C1        -37.5540  -27.0720    5.2270 c3        25 PS       0.000400
    387 CG        -38.9740  -27.5220    5.7170 ca        25 PS       0.250900
    388 CD1       -39.3240  -27.4420    7.0470 ca        25 PS      -0.270200
    389 CE1       -40.5740  -27.8020    7.4770 ca        25 PS      -0.050500
    390 CZ        -41.5540  -28.1220    6.6070 ca        25 PS      -0.188800
    391 CE2       -41.2240  -28.2420    5.2370 ca        25 PS      -0.050500
    392 CD2       -39.9640  -27.9720    4.8070 ca        25 PS      -0.270200
    393 H21       -35.7840  -27.8820    4.4870 hc        25 PS      -0.016200
    394 H22       -37.2440  -28.6520    3.7370 hc        25 PS      -0.016200
    395 H1        -37.0240  -26.7620    6.1270 hc        25 PS      -0.005300
    396 HD1       -38.5640  -27.3020    7.8070 ha        25 PS       0.124600
    397 HE1       -40.6940  -28.0120    8.5370 ha        25 PS       0.105800
    398 HZ        -42.6040  -28.2620    6.8370 ha        25 PS       0.124800
    399 HE2       -42.0040  -28.6820    4.6270 ha        25 PS       0.105800
    400 HD2       -39.7340  -28.0820    3.7470 ha        25 PS       0.124600
    401 C2        -37.6640  -25.8920    4.1670 c3        26 PS       0.031000
    402 C1        -37.9040  -24.4920    4.8070 c3        26 PS       0.000400
    403 CG        -39.1940  -24.3720    5.5870 ca        26 PS       0.250900
    404 CD1       -39.1740  -23.9720    6.9870 ca        26 PS      -0.270200
    405 CE1       -40.3940  -23.9520    7.6870 ca        26 PS      -0.050500
    406 CZ        -41.5840  -24.1620    7.0170 ca        26 PS      -0.188800
    407 CE2       -41.6040  -24.5220    5.6170 ca        26 PS      -0.050500
    408 CD2       -40.3940  -24.7720    4.9570 ca        26 PS      -0.270200
    409 H21       -36.7240  -25.9220    3.6170 hc        26 PS      -0.016200
    410 H22       -38.4840  -26.1020    3.4670 hc        26 PS      -0.016200
    411 H1        -37.0340  -24.2920    5.4470 hc        26 PS      -0.005300
    412 HD1       -38.2340  -23.6320    7.3870 ha        26 PS       0.124600
    413 HE1       -40.2740  -23.6420    8.7270 ha        26 PS       0.105800
    414 HZ        -42.5440  -23.9920    7.4970 ha        26 PS       0.124800
    415 HE2       -42.5540  -24.7220    5.1470 ha        26 PS       0.105800
    416 HD2       -40.4040  -25.0020    3.8870 ha        26 PS       0.124600
    417 C2        -37.9440  -23.4220    3.6870 c3        27 PS       0.031000
    418 C1        -37.7740  -21.9720    4.2770 c3        27 PS       0.000400
    419 CG        -36.2940  -21.6120    4.1770 ca        27 PS       0.250900
    420 CD1       -35.6040  -21.2120    3.0170 ca        27 PS      -0.270200
    421 CE1       -34.2540  -20.8920    3.0670 ca        27 PS      -0.050500
    422 CZ        -33.5340  -21.1220    4.2370 ca        27 PS      -0.188800
    423 CE2       -34.2040  -21.4320    5.4070 ca        27 PS      -0.050500
    424 CD2       -35.5740  -21.7320    5.3770 ca        27 PS      -0.270200
    425 H21       -37.2140  -23.6020    2.8870 hc        27 PS      -0.016200
    426 H22       -38.8940  -23.4920    3.1470 hc        27 PS      -0.016200
    427 H1        -38.0540  -21.9720    5.3470 hc        27 PS      -0.005300
    428 HD1       -36.0440  -21.0920    2.0270 ha        27 PS       0.124600
    429 HE1       -33.6840  -20.6720    2.1770 ha        27 PS       0.105800
    430 HZ        -32.4840  -20.8620    4.3370 ha        27 PS       0.124800
    431 HE2       -33.6240  -21.6920    6.2870 ha        27 PS       0.105800
    432 HD2       -35.9540  -21.9620    6.3670 ha        27 PS       0.124600
    433 C2        -38.6040  -21.0520    3.4770 c3        28 PS       0.031000
    434 C1        -40.0940  -20.9920    4.0170 c3        28 PS       0.000400
    435 CG        -40.1340  -20.0220    5.2870 ca        28 PS       0.250900
    436 CD1       -40.0640  -20.4820    6.5470 ca        28 PS      -0.270200
    437 CE1       -40.2140  -19.6420    7.6370 ca        28 PS      -0.050500
    438 CZ        -40.2640  -18.2220    7.4070 ca        28 PS      -0.188800
    439 CE2       -40.2140  -17.7320    6.1170 ca        28 PS      -0.050500
    440 CD2       -40.1540  -18.6020    5.0470 ca        28 PS      -0.270200
    441 H21       -38.1140  -20.0620    3.4270 hc        28 PS      -0.016200
    442 H22       -38.6340  -21.1820    2.3870 hc        28 PS      -0.016200
    443 H1        -40.3240  -21.9820    4.4270 hc        28 PS      -0.005300
    444 HD1       -39.9540  -21.5620    6.6670 ha        28 PS       0.124600
    445 HE1       -40.2740  -20.0120    8.6570 ha        28 PS       0.105800
    446 HZ        -40.3440  -17.5520    8.2570 ha        28 PS       0.124800
    447 HE2       -40.2540  -16.6620    5.9470 ha        28 PS       0.105800
    448 HD2       -40.2140  -18.3620    3.9870 ha        28 PS       0.124600
    449 C2         38.8660  -20.7620    2.8570 c3        29 PS       0.031000
    450 C1         37.4560  -20.6420    3.3570 c3        29 PS       0.000400
    451 CG         36.4760  -20.3420    2.2370 ca        29 PS       0.250900
    452 CD1        36.3560  -21.2520    1.2170 ca        29 PS      -0.270200
    453 CE1        35.5660  -21.0020    0.0970 ca        29 PS      -0.050500
    454 CZ         34.8560  -19.7220    0.0570 ca        29 PS      -0.188800
    455 CE2        35.0860  -18.7420    1.0770 ca        29 PS      -0.050500
    456 CD2        35.8760  -19.0920    2.1570 ca        29 PS      -0.270200
    457 H21        39.1260  -19.9620    2.1370 hc        29 PS      -0.016200
    458 H22        38.8460  -21.6520    2.2070 hc        29 PS      -0.016200
    459 H1         37.5360  -19.7820    4.0370 hc        29 PS      -0.005300
    460 HD1        36.8060  -22.2320    1.3870 ha        29 PS       0.124600
    461 HE1        35.2760  -21.9020   -0.4330 ha        29 PS       0.105800
    462 HZ         34.2460  -19.4520   -0.7930 ha        29 PS       0.124800
    463 HE2        34.6660  -17.7420    1.0270 ha        29 PS       0.105800
    464 HD2        36.0060  -18.4720    3.0270 ha        29 PS       0.124600
    465 C2         37.0360  -21.8320    4.2770 c3        30 PS       0.031000
    466 C1         35.5960  -21.6320    4.7270 c3        30 PS       0.000400
    467 CG         35.0660  -22.9420    5.3970 ca        30 PS       0.250900
    468 CD1        34.7860  -22.9520    6.7370 ca        30 PS      -0.270200
    469 CE1        34.2560  -24.0620    7.4170 ca        30 PS      -0.050500
    470 CZ         33.9460  -25.1920    6.6470 ca        30 PS      -0.188800
    471 CE2        34.1760  -25.1920    5.3270 ca        30 PS      -0.050500
    472 CD2        34.7760  -24.0920    4.6370 ca        30 PS      -0.270200
    473 H21        37.1260  -22.7920    3.7570 hc        30 PS      -0.016200
    474 H22        37.7260  -21.8720    5.1270 hc        30 PS      -0.016200
    475 H1         34.9660  -21.3320    3.8870 hc        30 PS      -0.005300
    476 HD1        35.0460  -22.0320    7.2470 ha        30 PS       0.124600
    477 HE1        34.0160  -24.0720    8.4770 ha        30 PS       0.105800
    478 HZ         33.4460  -26.0220    7.1370 ha        30 PS       0.124800
    479 HE2        33.8860  -26.0620    4.7470 ha        30 PS       0.105800
    480 HD2        35.0460  -24.0520    3.5870 ha        30 PS       0.124600
    481 C2        -24.4140   38.1280    8.0070 c3        31 PS       0.031000
    482 C1        -24.1540   39.2380    6.9670 c3        31 PS       0.000400
    483 CG        -22.6540   39.4680    6.8970 ca        31 PS       0.250900
    484 CD1       -21.7840   38.4580    6.4770 ca        31 PS      -0.270200
    485 CE1       -20.3540   38.5780    6.6270 ca        31 PS      -0.050500
    486 CZ        -19.8040   39.7380    7.1770 ca        31 PS      -0.188800
    487 CE2       -20.7040   40.8080    7.6270 ca        31 PS      -0.050500
    488 CD2       -22.1240   40.6580    7.4670 ca        31 PS      -0.270200
    489 H21       -24.3640   37.1680    7.4770 hc        31 PS      -0.016200
    490 H22       -23.8340   38.2180    8.9370 hc        31 PS      -0.016200
    491 H1        -24.6340   40.1680    7.3070 hc        31 PS      -0.005300
    492 HD1       -22.1240   37.6180    5.8870 ha        31 PS       0.124600
    493 HE1       -19.7540   37.6980    6.4270 ha        31 PS       0.105800
    494 HZ        -18.7440   39.7280    7.4070 ha        31 PS       0.124800
    495 HE2       -20.1940   41.6180    8.1370 ha        31 PS       0.105800
    496 HD2       -22.7940   41.3780    7.9270 ha        31 PS       0.124600
    497 C2        -24.8040   38.8880    5.5670 c3        32 PS       0.031000
    498 C1        -26.3740   39.0380    5.4470 c3        32 PS       0.000400
    499 CG        -27.0240   37.9380    6.3570 ca        32 PS       0.250900
    500 CD1       -27.6440   38.2580    7.5770 ca        32 PS      -0.270200
    501 CE1       -28.1540   37.3080    8.4270 ca        32 PS      -0.050500
    502 CZ        -28.1240   35.9480    8.0770 ca        32 PS      -0.188800
    503 CE2       -27.4240   35.5480    6.8870 ca        32 PS      -0.050500
    504 CD2       -26.9140   36.5680    6.0570 ca        32 PS      -0.270200
    505 H21       -24.4040   39.5480    4.7870 hc        32 PS      -0.016200
    506 H22       -24.5340   37.8880    5.2270 hc        32 PS      -0.016200
    507 H1        -26.6540   38.6680    4.4570 hc        32 PS      -0.005300
    508 HD1       -27.8140   39.2980    7.8470 ha        32 PS       0.124600
    509 HE1       -28.7640   37.5980    9.2770 ha        32 PS       0.105800
    510 HZ        -28.6240   35.2380    8.7370 ha        32 PS       0.124800
    511 HE2       -27.3440   34.4880    6.6570 ha        32 PS       0.105800
    512 HD2       -26.3440   36.2680    5.1770 ha        32 PS       0.124600
    513 C2        -26.9440  -39.5020    5.4970 c3        33 PS       0.031000
    514 C1        -28.4540  -39.4820    5.0270 c3        33 PS       0.000400
    515 CG        -29.2340  -38.3520    5.8070 ca        33 PS       0.250900
    516 CD1       -30.1140  -38.5520    6.8570 ca        33 PS      -0.270200
    517 CE1       -30.6540  -37.4720    7.5670 ca        33 PS      -0.050500
    518 CZ        -30.4240  -36.1520    7.1270 ca        33 PS      -0.188800
    519 CE2       -29.6240  -35.9120    6.0470 ca        33 PS      -0.050500
    520 CD2       -28.9440  -36.9820    5.4670 ca        33 PS      -0.270200
    521 H21       -26.7340  -39.0320    6.4570 hc        33 PS      -0.016200
    522 H22       -26.3740  -38.8520    4.8170 hc        33 PS      -0.016200
    523 H1        -28.9240  -40.4020    5.3870 hc        33 PS      -0.005300
    524 HD1       -30.3840  -39.5720    7.1070 ha        33 PS       0.124600
    525 HE1       -31.3540  -37.6420    8.3670 ha        33 PS       0.105800
    526 HZ        -30.9940  -35.3420    7.5670 ha        33 PS       0.124800
    527 HE2       -29.5740  -34.8920    5.6870 ha        33 PS       0.105800
    528 HD2       -28.3040  -36.8220    4.6070 ha        33 PS       0.124600
    529 C2        -28.5840   40.4980    3.5370 c3        34 PS       0.031000
    530 C1        -30.1040   40.6280    3.0070 c3        34 PS       0.000400
    531 CG        -30.8340   39.3780    3.3770 ca        34 PS       0.250900
    532 CD1       -31.6640   39.3180    4.4970 ca        34 PS      -0.270200
    533 CE1       -32.2540   38.1680    4.8970 ca        34 PS      -0.050500
    534 CZ        -32.1740   37.0080    4.1070 ca        34 PS      -0.188800
    535 CE2       -31.4740   37.0780    2.9070 ca        34 PS      -0.050500
    536 CD2       -30.8440   38.2780    2.5370 ca        34 PS      -0.270200
    537 H21       -27.9540   41.2980    3.1270 hc        34 PS      -0.016200
    538 H22       -28.2440   39.5280    3.1470 hc        34 PS      -0.016200
    539 H1        -30.4140   41.5280    3.5770 hc        34 PS      -0.005300
    540 HD1       -31.8940   40.2480    4.9970 ha        34 PS       0.124600
    541 HE1       -33.0540   38.1480    5.6370 ha        34 PS       0.105800
    542 HZ        -32.6940   36.0680    4.2370 ha        34 PS       0.124800
    543 HE2       -31.5440   36.2680    2.1870 ha        34 PS       0.105800
    544 HD2       -30.4240   38.3880    1.5470 ha        34 PS       0.124600
    545 C2        -30.3240  -38.8920    1.4370 c3        35 PS       0.031000
    546 C1        -31.8240  -38.6520    1.0570 c3        35 PS       0.000400
    547 CG        -32.4740  -37.7120    1.9670 ca        35 PS       0.250900
    548 CD1       -33.4040  -38.2020    2.9070 ca        35 PS      -0.270200
    549 CE1       -33.8540  -37.3320    3.9970 ca        35 PS      -0.050500
    550 CZ        -33.1940  -36.0620    4.0870 ca        35 PS      -0.188800
    551 CE2       -32.3440  -35.5920    3.1270 ca        35 PS      -0.050500
    552 CD2       -32.0540  -36.3620    2.0270 ca        35 PS      -0.270200
    553 H21       -29.7540  -37.9920    1.1970 hc        35 PS      -0.016200
    554 H22       -29.9340  -39.6720    0.7770 hc        35 PS      -0.016200
    555 H1        -32.3040  -39.6320    1.1370 hc        35 PS      -0.005300
    556 HD1       -33.9040  -39.1620    2.8970 ha        35 PS       0.124600
    557 HE1       -34.4640  -37.6720    4.8270 ha        35 PS       0.105800
    558 HZ        -33.4040  -35.3820    4.9170 ha        35 PS       0.124800
    559 HE2       -31.8240  -34.6420    3.1270 ha        35 PS       0.105800
    560 HD2       -31.3940  -35.9520    1.2670 ha        35 PS       0.124600
    561 C2        -31.9540  -38.3120   -0.4630 c3        36 PS       0.031000
    562 C1        -33.4140  -37.9920   -0.9830 c3        36 PS       0.000400
    563 CG        -33.9340  -36.6320   -0.5130 ca        36 PS       0.250900
    564 CD1       -33.4740  -35.4320   -1.0130 ca        36 PS      -0.270200
    565 CE1       -33.9940  -34.2920   -0.4730 ca        36 PS      -0.050500
    566 CZ        -34.9340  -34.2220    0.5370 ca        36 PS      -0.188800
    567 CE2       -35.4440  -35.4220    1.0670 ca        36 PS      -0.050500
    568 CD2       -34.9540  -36.6620    0.5070 ca        36 PS      -0.270200
    569 H21       -31.3740  -37.4020   -0.6030 hc        36 PS      -0.016200
    570 H22       -31.6140  -39.1420   -1.0930 hc        36 PS      -0.016200
    571 H1        -34.0540  -38.7820   -0.5630 hc        36 PS      -0.005300
    572 HD1       -32.8340  -35.3520   -1.8830 ha        36 PS       0.124600
    573 HE1       -33.6240  -33.3820   -0.9230 ha        36 PS       0.105800
    574 HZ        -35.2540  -33.2620    0.9270 ha        36 PS       0.124800
    575 HE2       -36.1740  -35.4720    1.8670 ha        36 PS       0.105800
    576 HD2       -35.2940  -37.5620    0.9970 ha        36 PS       0.124600
    577 C2        -33.4240  -38.1520   -2.5630 c3        37 PS       0.031000
    578 C1        -34.7140  -37.7120   -3.3330 c3        37 PS       0.000400
    579 CG        -34.4740  -37.8520   -4.9030 ca        37 PS       0.250900
    580 CD1       -33.6740  -36.9220   -5.5030 ca        37 PS      -0.270200
    581 CE1       -33.3140  -37.0020   -6.8930 ca        37 PS      -0.050500
    582 CZ        -33.7940  -38.1120   -7.5830 ca        37 PS      -0.188800
    583 CE2       -34.5640  -39.1320   -6.9130 ca        37 PS      -0.050500
    584 CD2       -35.0440  -38.9220   -5.6330 ca        37 PS      -0.270200
    585 H21       -32.6040  -37.4920   -2.8830 hc        37 PS      -0.016200
    586 H22       -33.1640  -39.1620   -2.9030 hc        37 PS      -0.016200
    587 H1        -34.6740  -36.6320   -3.1430 hc        37 PS      -0.005300
    588 HD1       -33.2940  -36.0920   -4.9230 ha        37 PS       0.124600
    589 HE1       -32.6940  -36.2420   -7.3630 ha        37 PS       0.105800
    590 HZ        -33.4840  -38.3120   -8.6130 ha        37 PS       0.124800
    591 HE2       -34.9040  -40.0020   -7.4630 ha        37 PS       0.105800
    592 HD2       -35.6840  -39.6820   -5.2030 ha        37 PS       0.124600
    593 C2        -36.1440  -38.1520   -2.8330 c3        38 PS       0.031000
    594 C1        -37.3840  -37.5820   -3.6130 c3        38 PS       0.000400
    595 CG        -37.2740  -36.0720   -3.9530 ca        38 PS       0.250900
    596 CD1       -37.0340  -35.1020   -2.9830 ca        38 PS      -0.270200
    597 CE1       -37.0540  -33.7220   -3.2130 ca        38 PS      -0.050500
    598 CZ        -37.3940  -33.3220   -4.5230 ca        38 PS      -0.188800
    599 CE2       -37.5540  -34.2620   -5.5630 ca        38 PS      -0.050500
    600 CD2       -37.5040  -35.6120   -5.2530 ca        38 PS      -0.270200
    601 H21       -36.2240  -39.2420   -2.9430 hc        38 PS      -0.016200
    602 H22       -36.2340  -37.9520   -1.7530 hc        38 PS      -0.016200
    603 H1        -37.5440  -38.1920   -4.5130 hc        38 PS      -0.005300
    604 HD1       -36.9640  -35.4220   -1.9430 ha        38 PS       0.124600
    605 HE1       -36.8640  -32.9920   -2.4330 ha        38 PS       0.105800
    606 HZ        -37.5840  -32.2520   -4.6330 ha        38 PS       0.124800
    607 HE2       -37.6840  -33.9120   -6.5830 ha        38 PS       0.105800
    608 HD2       -37.6340  -36.2420   -6.1330 ha        38 PS       0.124600
    609 C2         41.3660  -37.8420   -2.7230 c3        39 PS       0.031000
    610 C1         40.0360  -37.4220   -3.4230 c3        39 PS       0.000400
    611 CG         39.7060  -38.2920   -4.6530 ca        39 PS       0.250900
    612 CD1        39.6660  -37.6820   -5.9730 ca        39 PS      -0.270200
    613 CE1        39.1560  -38.4220   -7.0530 ca        39 PS      -0.050500
    614 CZ         38.7760  -39.7720   -6.9130 ca        39 PS      -0.188800
    615 CE2        38.8760  -40.3920   -5.6930 ca        39 PS      -0.050500
    616 CD2        39.2260  -39.6220   -4.5530 ca        39 PS      -0.270200
    617 H21        41.2460  -38.8120   -2.2330 hc        39 PS      -0.016200
    618 H22        41.3760  -37.2420   -1.8130 hc        39 PS      -0.016200
    619 H1         40.0660  -36.3720   -3.7430 hc        39 PS      -0.005300
    620 HD1        39.9760  -36.6520   -6.1130 ha        39 PS       0.124600
    621 HE1        39.1460  -37.9220   -8.0230 ha        39 PS       0.105800
    622 HZ         38.5760  -40.4420   -7.7530 ha        39 PS       0.124800
    623 HE2        38.6460  -41.4520   -5.5930 ha        39 PS       0.105800
    624 HD2        39.1060  -40.1320   -3.6130 ha        39 PS       0.124600
    625 C2         38.8660  -37.5020   -2.3630 c3        40 PS       0.031000
    626 C1         37.4460  -37.3020   -2.9130 c3        40 PS       0.000400
    627 CG         36.5260  -38.5220   -2.7630 ca        40 PS       0.250900
    628 CD1        35.8460  -38.9820   -3.9330 ca        40 PS      -0.270200
    629 CE1        34.9360  -40.0020   -3.9830 ca        40 PS      -0.050500
    630 CZ         34.7260  -40.6520   -2.7430 ca        40 PS      -0.188800
    631 CE2        35.3960  -40.2920   -1.5730 ca        40 PS      -0.050500
    632 CD2        36.2760  -39.2420   -1.5430 ca        40 PS      -0.270200
    633 H21        38.9360  -38.4920   -1.8930 hc        40 PS      -0.016200
    634 H22        39.0860  -36.8720   -1.4930 hc        40 PS      -0.016200
    635 H1         37.5760  -37.0520   -3.9630 hc        40 PS      -0.005300
    636 HD1        35.8660  -38.4420   -4.8730 ha        40 PS       0.124600
    637 HE1        34.3160  -40.2420   -4.8430 ha        40 PS       0.105800
    638 HZ         33.9660  -41.4220   -2.8330 ha        40 PS       0.124800
    639 HE2        35.0360  -40.8020   -0.6730 ha        40 PS       0.105800
    640 HD2        36.6260  -38.8420   -0.5930 ha        40 PS       0.124600
    641 C2         36.7760  -36.0820   -2.2330 c3        41 PS       0.031000
    642 C1         35.8760  -35.2720   -3.2230 c3        41 PS       0.000400
    643 CG         36.8360  -34.8520   -4.3530 ca        41 PS       0.250900
    644 CD1        36.5160  -35.2620   -5.6530 ca        41 PS      -0.270200
    645 CE1        37.3360  -34.8920   -6.8030 ca        41 PS      -0.050500
    646 CZ         38.4960  -34.1720   -6.5130 ca        41 PS      -0.188800
    647 CE2        38.7860  -33.7820   -5.2530 ca        41 PS      -0.050500
    648 CD2        37.9360  -34.0220   -4.1730 ca        41 PS      -0.270200
    649 H21        36.1660  -36.3920   -1.3830 hc        41 PS      -0.016200
    650 H22        37.5060  -35.3420   -1.8730 hc        41 PS      -0.016200
    651 H1         35.1260  -35.9620   -3.6330 hc        41 PS      -0.005300
    652 HD1        35.6260  -35.8420   -5.8430 ha        41 PS       0.124600
    653 HE1        37.0260  -35.2720   -7.7730 ha        41 PS       0.105800
    654 HZ         39.1360  -33.9420   -7.3530 ha        41 PS       0.124800
    655 HE2        39.7160  -33.2320   -5.1030 ha        41 PS       0.105800
    656 HD2        38.2260  -33.6820   -3.1830 ha        41 PS       0.124600
    657 C2         35.1760  -33.9920   -2.6530 c3        42 PS       0.031000
    658 C1         34.1160  -33.4020   -3.5530 c3        42 PS       0.000400
    659 CG         34.2060  -31.8420   -3.5230 ca        42 PS       0.250900
    660 CD1        34.5260  -31.0920   -4.7330 ca        42 PS      -0.270200
    661 CE1        34.5460  -29.6920   -4.6730 ca        42 PS      -0.050500
    662 CZ         34.5260  -29.0120   -3.4530 ca        42 PS      -0.188800
    663 CE2        34.1560  -29.6920   -2.2530 ca        42 PS      -0.050500
    664 CD2        34.0560  -31.1320   -2.2730 ca        42 PS      -0.270200
    665 H21        34.6960  -34.2520   -1.7030 hc        42 PS      -0.016200
    666 H22        35.9660  -33.2720   -2.3930 hc        42 PS      -0.016200
    667 H1         34.3560  -33.7120   -4.5730 hc        42 PS      -0.005300
    668 HD1        34.6260  -31.5420   -5.7230 ha        42 PS       0.124600
    669 HE1        34.8260  -29.1120   -5.5530 ha        42 PS       0.105800
    670 HZ         34.7860  -27.9620   -3.5230 ha        42 PS       0.124800
    671 HE2        34.1260  -29.1820   -1.2930 ha        42 PS       0.105800
    672 HD2        33.7560  -31.6520   -1.3730 ha        42 PS       0.124600
    673 C2         32.7060  -34.0220   -3.2230 c3        43 PS       0.031000
    674 C1         31.6960  -33.9520   -4.3830 c3        43 PS       0.000400
    675 CG         32.1260  -34.7020   -5.5530 ca        43 PS       0.250900
    676 CD1        32.5260  -33.9820   -6.6630 ca        43 PS      -0.270200
    677 CE1        33.0460  -34.5820   -7.7930 ca        43 PS      -0.050500
    678 CZ         33.3960  -35.9820   -7.7630 ca        43 PS      -0.188800
    679 CE2        33.0360  -36.7120   -6.6330 ca        43 PS      -0.050500
    680 CD2        32.4660  -36.0520   -5.5030 ca        43 PS      -0.270200
    681 H21        32.8160  -35.0620   -2.8930 hc        43 PS      -0.016200
    682 H22        32.2860  -33.5520   -2.3330 hc        43 PS      -0.016200
    683 H1         31.6060  -32.9020   -4.6930 hc        43 PS      -0.005300
    684 HD1        32.4860  -32.9020   -6.6430 ha        43 PS       0.124600
    685 HE1        33.1660  -33.9520   -8.6730 ha        43 PS       0.105800
    686 HZ         33.9860  -36.4320   -8.5430 ha        43 PS       0.124800
    687 HE2        33.1560  -37.7920   -6.6830 ha        43 PS       0.105800
    688 HD2        32.1760  -36.7120   -4.6930 ha        43 PS       0.124600
    689 C2         30.2760  -34.3720   -4.0130 c3        44 PS       0.031000
    690 C1         29.2560  -34.5820   -5.1730 c3        44 PS       0.000400
    691 CG         28.7760  -33.3320   -5.9430 ca        44 PS       0.250900
    692 CD1        28.0460  -32.3120   -5.2930 ca        44 PS      -0.270200
    693 CE1        27.5760  -31.1620   -5.9430 ca        44 PS      -0.050500
    694 CZ         27.9460  -30.9520   -7.2230 ca        44 PS      -0.188800
    695 CE2        28.7360  -31.8720   -7.9730 ca        44 PS      -0.050500
    696 CD2        29.0860  -33.1120   -7.3030 ca        44 PS      -0.270200
    697 H21        30.4360  -35.3420   -3.5230 hc        44 PS      -0.016200
    698 H22        29.7560  -33.7820   -3.2530 hc        44 PS      -0.016200
    699 H1         29.7660  -35.2520   -5.8730 hc        44 PS      -0.005300
    700 HD1        27.7260  -32.4420   -4.2530 ha        44 PS       0.124600
    701 HE1        27.0660  -30.4020   -5.3630 ha        44 PS       0.105800
    702 HZ         27.6960  -29.9720   -7.6130 ha        44 PS       0.124800
    703 HE2        29.0760  -31.5920   -8.9630 ha        44 PS       0.105800
    704 HD2        29.7460  -33.8020   -7.8230 ha        44 PS       0.124600
    705 C2         28.0060  -35.3720   -4.7430 c3        45 PS       0.031000
    706 C1         28.1360  -36.8920   -4.3830 c3        45 PS       0.000400
    707 CG         28.8260  -37.7020   -5.5230 ca        45 PS       0.250900
    708 CD1        29.7860  -38.6820   -5.0930 ca        45 PS      -0.270200
    709 CE1        30.4760  -39.5120   -6.0030 ca        45 PS      -0.050500
    710 CZ         30.3560  -39.2920   -7.4030 ca        45 PS      -0.188800
    711 CE2        29.3960  -38.3820   -7.7930 ca        45 PS      -0.050500
    712 CD2        28.5660  -37.6120   -6.9230 ca        45 PS      -0.270200
    713 H21        27.7260  -34.7620   -3.8830 hc        45 PS      -0.016200
    714 H22        27.2660  -35.4320   -5.5530 hc        45 PS      -0.016200
    715 H1         28.8760  -36.8720   -3.5830 hc        45 PS      -0.005300
    716 HD1        29.8860  -38.7520   -4.0130 ha        45 PS       0.124600
    717 HE1        31.0660  -40.3020   -5.5530 ha        45 PS       0.105800
    718 HZ         30.8260  -39.9520   -8.1230 ha        45 PS       0.124800
    719 HE2        29.2560  -38.1720   -8.8430 ha        45 PS       0.105800
    720 HD2        27.9360  -36.8220   -7.3030 ha        45 PS       0.124600
    721 C2         26.8460  -37.5220   -3.7530 c3        46 PS       0.031000
    722 C1         25.5760  -37.8720   -4.7130 c3        46 PS       0.000400
    723 CG         25.0260  -36.6420   -5.4230 ca        46 PS       0.250900
    724 CD1        24.7960  -36.7020   -6.8630 ca        46 PS      -0.270200
    725 CE1        24.2060  -35.5720   -7.5430 ca        46 PS      -0.050500
    726 CZ         23.8560  -34.3620   -6.8230 ca        46 PS      -0.188800
    727 CE2        24.2660  -34.2420   -5.5030 ca        46 PS      -0.050500
    728 CD2        24.7960  -35.3620   -4.8030 ca        46 PS      -0.270200
    729 H21        27.0560  -38.5220   -3.3730 hc        46 PS      -0.016200
    730 H22        26.3660  -36.9120   -2.9830 hc        46 PS      -0.016200
    731 H1         25.8860  -38.5120   -5.5530 hc        46 PS      -0.005300
    732 HD1        25.0160  -37.6320   -7.3830 ha        46 PS       0.124600
    733 HE1        24.1160  -35.6720   -8.6230 ha        46 PS       0.105800
    734 HZ         23.4460  -33.5720   -7.4430 ha        46 PS       0.124800
    735 HE2        24.2060  -33.2920   -4.9830 ha        46 PS       0.105800
    736 HD2        25.0660  -35.2620   -3.7530 ha        46 PS       0.124600
    737 C2         24.4660   41.3780   -3.8530 c3        47 PS       0.031000
    738 C1         23.4060   40.5880   -4.6230 c3        47 PS       0.000400
    739 CG         24.1160   39.4280   -5.3730 ca        47 PS       0.250900
    740 CD1        24.5960   38.2880   -4.7230 ca        47 PS      -0.270200
    741 CE1        25.1060   37.2280   -5.4330 ca        47 PS      -0.050500
    742 CZ         25.1560   37.3080   -6.7930 ca        47 PS      -0.188800
    743 CE2        24.8060   38.5380   -7.4430 ca        47 PS      -0.050500
    744 CD2        24.2260   39.5880   -6.7330 ca        47 PS      -0.270200
    745 H21        24.8660   40.5980   -3.1830 hc        47 PS      -0.016200
    746 H22        23.8660   42.0980   -3.2830 hc        47 PS      -0.016200
    747 H1         22.9060   41.1780   -5.4030 hc        47 PS      -0.005300
    748 HD1        24.5660   38.2680   -3.6330 ha        47 PS       0.124600
    749 HE1        25.4260   36.3080   -4.9530 ha        47 PS       0.105800
    750 HZ         25.6460   36.4980   -7.3230 ha        47 PS       0.124800
    751 HE2        24.7460   38.6680   -8.5230 ha        47 PS       0.105800
    752 HD2        23.7960   40.4180   -7.2830 ha        47 PS       0.124600
    753 C2         22.3060  -40.0520   -3.6730 c3        48 PS       0.031000
    754 C1         21.1760  -40.7720   -4.5130 c3        48 PS       0.000400
    755 CG         20.4060  -39.8020   -5.4530 ca        48 PS       0.250900
    756 CD1        19.8060  -38.6620   -4.8530 ca        48 PS      -0.270200
    757 CE1        19.0260  -37.7720   -5.5630 ca        48 PS      -0.050500
    758 CZ         18.7360  -38.0120   -6.9130 ca        48 PS      -0.188800
    759 CE2        19.3360  -39.1220   -7.5330 ca        48 PS      -0.050500
    760 CD2        20.1460  -40.0020   -6.8230 ca        48 PS      -0.270200
    761 H21        22.6860  -40.9220   -3.1230 hc        48 PS      -0.016200
    762 H22        21.8660  -39.3620   -2.9430 hc        48 PS      -0.016200
    763 H1         21.7360  -41.4820   -5.1430 hc        48 PS      -0.005300
    764 HD1        19.9660  -38.3820   -3.8130 ha        48 PS       0.124600
    765 HE1        18.5560  -36.9420   -5.0430 ha        48 PS       0.105800
    766 HZ         18.1960  -37.2920   -7.5130 ha        48 PS       0.124800
    767 HE2        19.0860  -39.3420   -8.5730 ha        48 PS       0.105800
    768 HD2        20.6360  -40.8620   -7.2630 ha        48 PS       0.124600
    769 C2         20.2060   38.2180   -3.7130 c3        49 PS       0.031000
    770 C1         20.9260   36.8980   -3.1830 c3        49 PS       0.000400
    771 CG         21.6260   35.9280   -4.1930 ca        49 PS       0.250900
    772 CD1        21.2760   35.7780   -5.6030 ca        49 PS      -0.270200
    773 CE1        21.9860   34.8780   -6.4530 ca        49 PS      -0.050500
    774 CZ         23.0760   34.1180   -5.9630 ca        49 PS      -0.188800
    775 CE2        23.3260   34.1680   -4.5830 ca        49 PS      -0.050500
    776 CD2        22.6460   35.0680   -3.7230 ca        49 PS      -0.270200
    777 H21        19.8560   38.7180   -2.8030 hc        49 PS      -0.016200
    778 H22        19.3660   37.9880   -4.3730 hc        49 PS      -0.016200
    779 H1         21.6860   37.1680   -2.4330 hc        49 PS      -0.005300
    780 HD1        20.5060   36.3580   -6.0830 ha        49 PS       0.124600
    781 HE1        21.6760   34.6880   -7.4730 ha        49 PS       0.105800
    782 HZ         23.6360   33.5280   -6.6830 ha        49 PS       0.124800
    783 HE2        24.2060   33.6280   -4.2330 ha        49 PS       0.105800
    784 HD2        23.0360   35.1480   -2.7130 ha        49 PS       0.124600
    785 C2         19.9060   36.0980   -2.2830 c3        50 PS       0.031000
    786 C1         18.7560   35.3980   -3.1330 c3        50 PS       0.000400
    787 CG         18.7360   33.9480   -2.8330 ca        50 PS       0.250900
    788 CD1        18.7460   33.0480   -3.9230 ca        50 PS      -0.270200
    789 CE1        18.7160   31.6880   -3.7230 ca        50 PS      -0.050500
    790 CZ         18.8860   31.1580   -2.4330 ca        50 PS      -0.188800
    791 CE2        18.9260   31.9780   -1.3130 ca        50 PS      -0.050500
    792 CD2        18.8460   33.3480   -1.5430 ca        50 PS      -0.270200
    793 H21        20.4860   35.3080   -1.7830 hc        50 PS      -0.016200
    794 H22        19.5260   36.7380   -1.4830 hc        50 PS      -0.016200
    795 H1         18.8660   35.5580   -4.2130 hc        50 PS      -0.005300
    796 HD1        18.8260   33.4680   -4.9230 ha        50 PS       0.124600
    797 HE1        18.5660   31.1380   -4.6430 ha        50 PS       0.105800
    798 HZ         18.7360   30.0780   -2.3230 ha        50 PS       0.124800
    799 HE2        18.8460   31.4780   -0.3430 ha        50 PS       0.105800
    800 HD2        18.8560   34.0780   -0.7330 ha        50 PS       0.124600
    801 C2         17.3660   36.0580   -2.8530 c3        51 PS       0.031000
    802 C1         16.2060   35.6080   -3.7130 c3        51 PS       0.000400
    803 CG         16.4060   36.0280   -5.1830 ca        51 PS       0.250900
    804 CD1        16.2260   35.0780   -6.2430 ca        51 PS      -0.270200
    805 CE1        16.3760   35.5280   -7.5830 ca        51 PS      -0.050500
    806 CZ         16.6460   36.8580   -7.8630 ca        51 PS      -0.188800
    807 CE2        16.8360   37.7580   -6.8030 ca        51 PS      -0.050500
    808 CD2        16.7360   37.3880   -5.4630 ca        51 PS      -0.270200
    809 H21        17.1860   35.7880   -1.8130 hc        51 PS      -0.016200
    810 H22        17.4260   37.1480   -2.9530 hc        51 PS      -0.016200
    811 H1         16.2460   34.5280   -3.5630 hc        51 PS      -0.005300
    812 HD1        15.9960   34.0280   -6.1130 ha        51 PS       0.124600
    813 HE1        16.1460   34.8580   -8.4130 ha        51 PS       0.105800
    814 HZ         16.5460   37.1880   -8.8930 ha        51 PS       0.124800
    815 HE2        16.7960   38.8080   -7.0730 ha        51 PS       0.105800
    816 HD2        16.7960   38.1280   -4.6730 ha        51 PS       0.124600
    817 C2         14.8060   36.0980   -3.1630 c3        52 PS       0.031000
    818 C1         13.8260   34.9380   -2.9630 c3        52 PS       0.000400
    819 CG         13.9460   34.3580   -1.5330 ca        52 PS       0.250900
    820 CD1        14.7760   33.2980   -1.2330 ca        52 PS      -0.270200
    821 CE1        14.9960   32.9480    0.1070 ca        52 PS      -0.050500
    822 CZ         14.3060   33.6380    1.0670 ca        52 PS      -0.188800
    823 CE2        13.4160   34.6780    0.7570 ca        52 PS      -0.050500
    824 CD2        13.2960   35.0680   -0.5530 ca        52 PS      -0.270200
    825 H21        14.6860   36.8180   -2.3430 hc        52 PS      -0.016200
    826 H22        14.4260   36.8180   -3.8930 hc        52 PS      -0.016200
    827 H1         14.0760   34.1480   -3.6730 hc        52 PS      -0.005300
    828 HD1        15.3160   32.7780   -2.0230 ha        52 PS       0.124600
    829 HE1        15.5860   32.0780    0.3670 ha        52 PS       0.105800
    830 HZ         14.3760   33.3580    2.1170 ha        52 PS       0.124800
    831 HE2        12.9060   35.2380    1.5370 ha        52 PS       0.105800
    832 HD2        12.7760   35.9980   -0.7830 ha        52 PS       0.124600
    833 C2         12.3760   35.2980   -3.4530 c3        53 PS       0.031000
    834 C1         11.5260   33.9780   -3.6130 c3        53 PS       0.000400
    835 CG         12.0360   32.9680   -4.6630 ca        53 PS       0.250900
    836 CD1        12.4160   31.6680   -4.2930 ca        53 PS      -0.270200
    837 CE1        12.7860   30.6880   -5.2930 ca        53 PS      -0.050500
    838 CZ         13.0660   31.1680   -6.6230 ca        53 PS      -0.188800
    839 CE2        12.7360   32.4480   -6.9830 ca        53 PS      -0.050500
    840 CD2        12.2460   33.3080   -6.0030 ca        53 PS      -0.270200
    841 H21        11.8360   35.9580   -2.7530 hc        53 PS      -0.016200
    842 H22        12.4060   35.9180   -4.3530 hc        53 PS      -0.016200
    843 H1         11.5460   33.5480   -2.6030 hc        53 PS      -0.005300
    844 HD1        12.4060   31.3480   -3.2630 ha        53 PS       0.124600
    845 HE1        12.8060   29.6080   -5.2130 ha        53 PS       0.105800
    846 HZ         13.5560   30.4780   -7.3130 ha        53 PS       0.124800
    847 HE2        12.9160   32.8380   -7.9830 ha        53 PS       0.105800
    848 HD2        12.0260   34.3280   -6.2930 ha        53 PS       0.124600
    849 C2         10.1160   34.4280   -3.8330 c3        54 PS       0.031000
    850 C1          9.0460   33.3280   -3.7630 c3        54 PS       0.000400
    851 CG          8.1160   33.3880   -4.9730 ca        54 PS       0.250900
    852 CD1         6.7760   33.9180   -4.9530 ca        54 PS      -0.270200
    853 CE1         6.0860   34.0480   -6.1730 ca        54 PS      -0.050500
    854 CZ          6.5760   33.6080   -7.4030 ca        54 PS      -0.188800
    855 CE2         7.9360   33.1380   -7.4130 ca        54 PS      -0.050500
    856 CD2         8.6860   33.0480   -6.2230 ca        54 PS      -0.270200
    857 H21         9.9360   35.2180   -3.1030 hc        54 PS      -0.016200
    858 H22         9.9760   34.9780   -4.7730 hc        54 PS      -0.016200
    859 H1          9.4360   32.2980   -3.8330 hc        54 PS      -0.005300
    860 HD1         6.2360   34.2680   -4.0830 ha        54 PS       0.124600
    861 HE1         5.1060   34.5080   -6.1030 ha        54 PS       0.105800
    862 HZ          5.9360   33.6580   -8.2730 ha        54 PS       0.124800
    863 HE2         8.3760   32.7080   -8.3130 ha        54 PS       0.105800
    864 HD2         9.6560   32.5480   -6.2330 ha        54 PS       0.124600
    865 C2          8.1960   33.3080   -2.4830 c3        55 PS       0.031000
    866 C1          8.8460   32.4680   -1.2830 c3        55 PS       0.000400
    867 CG          8.7160   30.9680   -1.5730 ca        55 PS       0.250900
    868 CD1         9.8060   30.2180   -2.0330 ca        55 PS      -0.270200
    869 CE1         9.5160   28.8680   -2.3530 ca        55 PS      -0.050500
    870 CZ          8.2660   28.3080   -2.3430 ca        55 PS      -0.188800
    871 CE2         7.2260   29.0980   -1.8430 ca        55 PS      -0.050500
    872 CD2         7.4260   30.4180   -1.4030 ca        55 PS      -0.270200
    873 H21         7.9560   34.3080   -2.1030 hc        55 PS      -0.016200
    874 H22         7.2260   32.8180   -2.6030 hc        55 PS      -0.016200
    875 H1          9.8960   32.7680   -1.1930 hc        55 PS      -0.005300
    876 HD1        10.7560   30.6580   -2.3130 ha        55 PS       0.124600
    877 HE1        10.3360   28.4780   -2.9430 ha        55 PS       0.105800
    878 HZ          8.0760   27.2580   -2.5330 ha        55 PS       0.124800
    879 HE2         6.2160   28.7180   -2.0130 ha        55 PS       0.105800
    880 HD2         6.6760   31.0580   -0.9530 ha        55 PS       0.124600
    881 C2          8.4360   32.8680    0.1570 c3        56 PS       0.031000
    882 C1          9.4560   32.7880    1.3670 c3        56 PS       0.000400
    883 CG         10.2360   31.4380    1.3570 ca        56 PS       0.250900
    884 CD1        11.5860   31.3680    1.3870 ca        56 PS      -0.270200
    885 CE1        12.2660   30.1180    1.5670 ca        56 PS      -0.050500
    886 CZ         11.5260   28.9780    1.4970 ca        56 PS      -0.188800
    887 CE2        10.1360   28.9680    1.4970 ca        56 PS      -0.050500
    888 CD2         9.4960   30.2480    1.5670 ca        56 PS      -0.270200
    889 H21         8.3960   33.9680    0.1570 hc        56 PS      -0.016200
    890 H22         7.4760   32.4380    0.4570 hc        56 PS      -0.016200
    891 H1         10.2660   33.5180    1.2670 hc        56 PS      -0.005300
    892 HD1        12.2060   32.2580    1.2770 ha        56 PS       0.124600
    893 HE1        13.3560   30.0880    1.6270 ha        56 PS       0.105800
    894 HZ         12.0960   28.0680    1.3570 ha        56 PS       0.124800
    895 HE2         9.5360   28.0680    1.5170 ha        56 PS       0.105800
    896 HD2         8.4160   30.2880    1.6470 ha        56 PS       0.124600
    897 C2          8.8460   33.1080    2.7270 c3        57 PS       0.031000
    898 C1          9.7460   32.8880    3.9670 c3        57 PS       0.000400
    899 CG         10.8860   34.0080    4.0870 ca        57 PS       0.250900
    900 CD1        12.2360   33.5680    4.1170 ca        57 PS      -0.270200
    901 CE1        13.2660   34.5080    4.3870 ca        57 PS      -0.050500
    902 CZ         12.9060   35.8280    4.6770 ca        57 PS      -0.188800
    903 CE2        11.5360   36.2480    4.6370 ca        57 PS      -0.050500
    904 CD2        10.4960   35.3480    4.3170 ca        57 PS      -0.270200
    905 H21         8.5360   34.1580    2.6470 hc        57 PS      -0.016200
    906 H22         7.9560   32.4680    2.8470 hc        57 PS      -0.016200
    907 H1         10.1260   31.8580    3.8370 hc        57 PS      -0.005300
    908 HD1        12.4560   32.5480    3.8370 ha        57 PS       0.124600
    909 HE1        14.2960   34.1980    4.2670 ha        57 PS       0.105800
    910 HZ         13.7060   36.5180    4.9270 ha        57 PS       0.124800
    911 HE2        11.2860   37.2680    4.9170 ha        57 PS       0.105800
    912 HD2         9.4660   35.6680    4.2970 ha        57 PS       0.124600
    913 C2          8.8460   32.8680    5.2070 c3        58 PS       0.031000
    914 C1          9.5760   32.3780    6.5470 c3        58 PS       0.000400
    915 CG         10.1960   33.5180    7.3770 ca        58 PS       0.250900
    916 CD1        11.5160   33.5680    7.6770 ca        58 PS      -0.270200
    917 CE1        12.1560   34.7880    8.0570 ca        58 PS      -0.050500
    918 CZ         11.4360   35.9880    8.2270 ca        58 PS      -0.188800
    919 CE2        10.0260   35.9180    8.0970 ca        58 PS      -0.050500
    920 CD2         9.4760   34.7280    7.5470 ca        58 PS      -0.270200
    921 H21         8.4360   33.8780    5.3470 hc        58 PS      -0.016200
    922 H22         8.0060   32.1780    5.0370 hc        58 PS      -0.016200
    923 H1         10.3860   31.7280    6.1970 hc        58 PS      -0.005300
    924 HD1        12.1660   32.7280    7.4570 ha        58 PS       0.124600
    925 HE1        13.2360   34.9480    8.1070 ha        58 PS       0.105800
    926 HZ         11.9060   36.9380    8.4570 ha        58 PS       0.124800
    927 HE2         9.5160   36.8280    8.4170 ha        58 PS       0.105800
    928 HD2         8.4360   34.8180    7.2570 ha        58 PS       0.124600
    929 C2          8.6560   31.5380    7.4170 c3        59 PS       0.031000
    930 C1          8.2560   30.2080    6.7770 c3        59 PS       0.000400
    931 CG          9.4460   29.2680    6.5870 ca        59 PS       0.250900
    932 CD1        10.0660   28.6980    7.6670 ca        59 PS      -0.270200
    933 CE1        11.1960   27.8880    7.5270 ca        59 PS      -0.050500
    934 CZ         11.6660   27.5080    6.2770 ca        59 PS      -0.188800
    935 CE2        11.0160   28.1380    5.1570 ca        59 PS      -0.050500
    936 CD2         9.9560   29.1080    5.2770 ca        59 PS      -0.270200
    937 H21         9.1060   31.6180    8.4170 hc        59 PS      -0.016200
    938 H22         7.7360   32.1280    7.5370 hc        59 PS      -0.016200
    939 H1          7.9760   30.3980    5.7370 hc        59 PS      -0.005300
    940 HD1         9.6960   28.7480    8.6870 ha        59 PS       0.124600
    941 HE1        11.6260   27.4080    8.3870 ha        59 PS       0.105800
    942 HZ         12.4560   26.7780    6.1170 ha        59 PS       0.124800
    943 HE2        11.4260   27.9780    4.1670 ha        59 PS       0.105800
    944 HD2         9.6160   29.5080    4.3370 ha        59 PS       0.124600
    945 C2          6.9960   29.7480    7.6170 c3        60 PS       0.031000
    946 C1          6.1960   28.6480    6.8470 c3        60 PS       0.000400
    947 CG          6.9560   27.3380    6.6470 ca        60 PS       0.250900
    948 CD1         6.9760   26.3180    7.5970 ca        60 PS      -0.270200
    949 CE1         7.8260   25.1880    7.2770 ca        60 PS      -0.050500
    950 CZ          8.6260   25.0680    6.1070 ca        60 PS      -0.188800
    951 CE2         8.4660   26.1080    5.1270 ca        60 PS      -0.050500
    952 CD2         7.5060   27.1180    5.4270 ca        60 PS      -0.270200
    953 H21         7.3960   29.3680    8.5670 hc        60 PS      -0.016200
    954 H22         6.2860   30.5580    7.8270 hc        60 PS      -0.016200
    955 H1          5.1760   28.4480    7.1970 hc        60 PS      -0.005300
    956 HD1         6.4960   26.3880    8.5670 ha        60 PS       0.124600
    957 HE1         7.8960   24.3780    8.0070 ha        60 PS       0.105800
    958 HZ          9.3960   24.3080    6.0570 ha        60 PS       0.124800
    959 HE2         9.1060   26.0480    4.2470 ha        60 PS       0.105800
    960 HD2         7.4160   27.9380    4.7270 ha        60 PS       0.124600
    961 C2         19.3260  -10.7920    5.4570 c3        61 PS       0.031000
    962 C1         18.9960   -9.3920    4.9470 c3        61 PS       0.000400
    963 CG         20.1360   -8.6520    4.1670 ca        61 PS       0.250900
    964 CD1        20.7460   -7.4920    4.6570 ca        61 PS      -0.270200
    965 CE1        21.7960   -6.7620    3.9670 ca        61 PS      -0.050500
    966 CZ         22.4460   -7.4720    2.9570 ca        61 PS      -0.188800
    967 CE2        21.8860   -8.6820    2.4870 ca        61 PS      -0.050500
    968 CD2        20.6860   -9.1620    3.0270 ca        61 PS      -0.270200
    969 H21        20.4260  -10.7720    5.4370 hc        61 PS      -0.016200
    970 H22        18.9460  -10.9620    6.4770 hc        61 PS      -0.016200
    971 H1         18.8560   -8.7020    5.7970 hc        61 PS      -0.005300
    972 HD1        20.1960   -7.0220    5.4670 ha        61 PS       0.124600
    973 HE1        22.2260   -5.9020    4.4570 ha        61 PS       0.105800
    974 HZ         23.4260   -7.1220    2.6370 ha        61 PS       0.124800
    975 HE2        22.4660   -9.2220    1.7370 ha        61 PS       0.105800
    976 HD2        20.3960  -10.1920    2.7970 ha        61 PS       0.124600
    977 C2         17.7160   -9.4020    4.0770 c3        62 PS       0.031000
    978 C1         16.3960   -9.3820    4.9570 c3        62 PS       0.000400
    979 CG         16.0360  -10.8120    5.5970 ca        62 PS       0.250900
    980 CD1        16.1360  -11.1120    6.9570 ca        62 PS      -0.270200
    981 CE1        15.9260  -12.4020    7.3970 ca        62 PS      -0.050500
    982 CZ         15.5260  -13.4320    6.5170 ca        62 PS      -0.188800
    983 CE2        15.4360  -13.1920    5.1370 ca        62 PS      -0.050500
    984 CD2        15.7560  -11.9220    4.7070 ca        62 PS      -0.270200
    985 H21        17.6260   -8.5220    3.4270 hc        62 PS      -0.016200
    986 H22        17.6760  -10.2520    3.3870 hc        62 PS      -0.016200
    987 H1         15.5860   -9.1620    4.2570 hc        62 PS      -0.005300
    988 HD1        16.3860  -10.3520    7.6970 ha        62 PS       0.124600
    989 HE1        16.0460  -12.6520    8.4470 ha        62 PS       0.105800
    990 HZ         15.3460  -14.4320    6.8970 ha        62 PS       0.124800
    991 HE2        15.1160  -13.8820    4.3670 ha        62 PS       0.105800
    992 HD2        15.6760  -11.7320    3.6370 ha        62 PS       0.124600
    993 C2         16.3160   -8.2220    6.0370 c3        63 PS       0.031000
    994 C1         16.4060   -6.7720    5.5070 c3        63 PS       0.000400
    995 CG         15.3760   -6.4720    4.4770 ca        63 PS       0.250900
    996 CD1        14.0360   -6.7020    4.6370 ca        63 PS      -0.270200
    997 CE1        13.0960   -6.6620    3.5470 ca        63 PS      -0.050500
    998 CZ         13.4960   -6.1920    2.3070 ca        63 PS      -0.188800
    999 CE2        14.8460   -5.8620    2.1070 ca        63 PS      -0.050500
   1000 CD2        15.7960   -6.0620    3.1770 ca        63 PS      -0.270200
   1001 H21        15.3960   -8.3720    6.6170 hc        63 PS      -0.016200
   1002 H22        17.1260   -8.3220    6.7670 hc        63 PS      -0.016200
   1003 H1         17.4160   -6.6520    5.0970 hc        63 PS      -0.005300
   1004 HD1        13.7560   -6.9820    5.6470 ha        63 PS       0.124600
   1005 HE1        12.1360   -7.1620    3.6470 ha        63 PS       0.105800
   1006 HZ         12.7060   -6.0320    1.5870 ha        63 PS       0.124800
   1007 HE2        15.1960   -5.5520    1.1270 ha        63 PS       0.105800
   1008 HD2        16.8660   -5.9420    3.0170 ha        63 PS       0.124600
   1009 C2         16.1560   -5.8520    6.6770 c3        64 PS       0.031000
   1010 C1         16.5760   -4.3920    6.4370 c3        64 PS       0.000400
   1011 CG         18.0960   -4.2220    6.3670 ca        64 PS       0.250900
   1012 CD1        18.9060   -4.3420    7.5070 ca        64 PS      -0.270200
   1013 CE1        20.2460   -4.1020    7.3670 ca        64 PS      -0.050500
   1014 CZ         20.8260   -3.8820    6.0970 ca        64 PS      -0.188800
   1015 CE2        19.9760   -3.7720    4.9870 ca        64 PS      -0.050500
   1016 CD2        18.6260   -3.9520    5.1270 ca        64 PS      -0.270200
   1017 H21        15.0960   -5.7920    6.9470 hc        64 PS      -0.016200
   1018 H22        16.6060   -6.3120    7.5670 hc        64 PS      -0.016200
   1019 H1         16.0560   -4.1520    5.4970 hc        64 PS      -0.005300
   1020 HD1        18.5560   -4.4320    8.5270 ha        64 PS       0.124600
   1021 HE1        20.9260   -4.1720    8.2070 ha        64 PS       0.105800
   1022 HZ         21.8860   -3.6520    6.0570 ha        64 PS       0.124800
   1023 HE2        20.4860   -3.4720    4.0770 ha        64 PS       0.105800
   1024 HD2        17.9560   -3.8920    4.2770 ha        64 PS       0.124600
   1025 C2         15.9960   -3.3420    7.5070 c3        65 PS       0.031000
   1026 C1         15.3060   -2.1220    6.8970 c3        65 PS       0.000400
   1027 CG         13.8260   -2.4720    6.9070 ca        65 PS       0.250900
   1028 CD1        13.3460   -3.4820    6.0670 ca        65 PS      -0.270200
   1029 CE1        12.0560   -3.9420    6.0370 ca        65 PS      -0.050500
   1030 CZ         11.1660   -3.4020    6.9770 ca        65 PS      -0.188800
   1031 CE2        11.6160   -2.4120    7.9270 ca        65 PS      -0.050500
   1032 CD2        12.9960   -2.0420    7.9470 ca        65 PS      -0.270200
   1033 H21        15.2760   -3.7420    8.2270 hc        65 PS      -0.016200
   1034 H22        16.7860   -3.0120    8.1870 hc        65 PS      -0.016200
   1035 H1         15.6160   -2.0720    5.8470 hc        65 PS      -0.005300
   1036 HD1        14.0260   -3.9820    5.3670 ha        65 PS       0.124600
   1037 HE1        11.5860   -4.5520    5.2670 ha        65 PS       0.105800
   1038 HZ         10.1460   -3.7720    6.8670 ha        65 PS       0.124800
   1039 HE2        10.9060   -1.8920    8.5570 ha        65 PS       0.105800
   1040 HD2        13.2660   -1.3020    8.6870 ha        65 PS       0.124600
   1041 C2         15.7460   -0.8620    7.6370 c3        66 PS       0.031000
   1042 C1         15.3260    0.5180    6.9970 c3        66 PS       0.000400
   1043 CG         13.7960    0.7780    6.9170 ca        66 PS       0.250900
   1044 CD1        12.9960    1.0880    8.0570 ca        66 PS      -0.270200
   1045 CE1        11.5760    1.1380    7.9770 ca        66 PS      -0.050500
   1046 CZ         10.9760    1.1180    6.7070 ca        66 PS      -0.188800
   1047 CE2        11.7460    1.0080    5.5570 ca        66 PS      -0.050500
   1048 CD2        13.1460    0.7580    5.6570 ca        66 PS      -0.270200
   1049 H21        15.5260   -0.7920    8.7070 hc        66 PS      -0.016200
   1050 H22        16.8360   -0.9620    7.7370 hc        66 PS      -0.016200
   1051 H1         15.6560    0.6280    5.9570 hc        66 PS      -0.005300
   1052 HD1        13.3860    1.1180    9.0670 ha        66 PS       0.124600
   1053 HE1        10.9460    1.1180    8.8670 ha        66 PS       0.105800
   1054 HZ          9.8860    1.1780    6.6470 ha        66 PS       0.124800
   1055 HE2        11.2560    0.9280    4.5970 ha        66 PS       0.105800
   1056 HD2        13.7260    0.5780    4.7470 ha        66 PS       0.124600
   1057 C2         15.9660    1.7080    7.8370 c3        67 PS       0.031000
   1058 C1         17.2460    2.3280    7.3270 c3        67 PS       0.000400
   1059 CG         18.3560    1.2980    7.0670 ca        67 PS       0.250900
   1060 CD1        18.4960    0.5880    5.8870 ca        67 PS      -0.270200
   1061 CE1        19.6260   -0.2220    5.5770 ca        67 PS      -0.050500
   1062 CZ         20.5760   -0.3520    6.5670 ca        67 PS      -0.188800
   1063 CE2        20.4860    0.2780    7.8670 ca        67 PS      -0.050500
   1064 CD2        19.3160    1.0580    8.0670 ca        67 PS      -0.270200
   1065 H21        15.2260    2.5180    7.9070 hc        67 PS      -0.016200
   1066 H22        16.0860    1.4180    8.8970 hc        67 PS      -0.016200
   1067 H1         17.5060    2.9880    8.1670 hc        67 PS      -0.005300
   1068 HD1        17.7760    0.7680    5.0970 ha        67 PS       0.124600
   1069 HE1        19.7060   -0.7020    4.6070 ha        67 PS       0.105800
   1070 HZ         21.3760   -1.0120    6.2370 ha        67 PS       0.124800
   1071 HE2        21.1960    0.0780    8.6670 ha        67 PS       0.105800
   1072 HD2        19.2760    1.6480    8.9770 ha        67 PS       0.124600
   1073 C2         16.8360    3.3480    6.2270 c3        68 PS       0.031000
   1074 C1         18.0960    3.8680    5.4570 c3        68 PS       0.000400
   1075 CG         19.1460    4.4180    6.4770 ca        68 PS       0.250900
   1076 CD1        20.4160    3.8980    6.4570 ca        68 PS      -0.270200
   1077 CE1        21.3760    4.2880    7.3970 ca        68 PS      -0.050500
   1078 CZ         21.0560    5.3880    8.2670 ca        68 PS      -0.188800
   1079 CE2        19.7760    5.9580    8.2370 ca        68 PS      -0.050500
   1080 CD2        18.8360    5.4480    7.3770 ca        68 PS      -0.270200
   1081 H21        16.2260    2.8280    5.4870 hc        68 PS      -0.016200
   1082 H22        16.2160    4.1680    6.5970 hc        68 PS      -0.016200
   1083 H1         18.6060    3.0480    4.9470 hc        68 PS      -0.005300
   1084 HD1        20.7060    3.1080    5.7670 ha        68 PS       0.124600
   1085 HE1        22.3260    3.7680    7.2970 ha        68 PS       0.105800
   1086 HZ         21.8160    5.8580    8.8970 ha        68 PS       0.124800
   1087 HE2        19.4660    6.7480    8.9170 ha        68 PS       0.105800
   1088 HD2        17.8360    5.8680    7.3070 ha        68 PS       0.124600
   1089 C2         17.6660    4.9880    4.4270 c3        69 PS       0.031000
   1090 C1         18.8260    5.5280    3.5570 c3        69 PS       0.000400
   1091 CG         19.3360    4.6580    2.4470 ca        69 PS       0.250900
   1092 CD1        20.6760    4.2080    2.5070 ca        69 PS      -0.270200
   1093 CE1        21.1960    3.3380    1.5870 ca        69 PS      -0.050500
   1094 CZ         20.4060    2.8580    0.5570 ca        69 PS      -0.188800
   1095 CE2        18.9960    3.1380    0.6770 ca        69 PS      -0.050500
   1096 CD2        18.4760    4.0480    1.5570 ca        69 PS      -0.270200
   1097 H21        16.9060    4.6080    3.7270 hc        69 PS      -0.016200
   1098 H22        17.1660    5.7280    5.0570 hc        69 PS      -0.016200
   1099 H1         19.6560    5.7480    4.2370 hc        69 PS      -0.005300
   1100 HD1        21.3460    4.5580    3.2870 ha        69 PS       0.124600
   1101 HE1        22.2560    3.1180    1.5370 ha        69 PS       0.105800
   1102 HZ         20.7860    2.1180   -0.1530 ha        69 PS       0.124800
   1103 HE2        18.3860    2.6380   -0.0730 ha        69 PS       0.105800
   1104 HD2        17.4160    4.2780    1.5570 ha        69 PS       0.124600
   1105 C2         18.5860    6.9380    3.0870 c3        70 PS       0.031000
   1106 C1         18.9860    7.9980    4.1170 c3        70 PS       0.000400
   1107 CG         20.4060    8.2780    4.2770 ca        70 PS       0.250900
   1108 CD1        20.9660    8.0980    5.5570 ca        70 PS      -0.270200
   1109 CE1        22.3060    8.3680    5.7970 ca        70 PS      -0.050500
   1110 CZ         23.1460    8.6780    4.6570 ca        70 PS      -0.188800
   1111 CE2        22.6360    8.7180    3.3070 ca        70 PS      -0.050500
   1112 CD2        21.2460    8.6780    3.2270 ca        70 PS      -0.270200
   1113 H21        19.1060    6.9980    2.1270 hc        70 PS      -0.016200
   1114 H22        17.5560    7.0480    2.7170 hc        70 PS      -0.016200
   1115 H1         18.3760    7.6880    4.9770 hc        70 PS      -0.005300
   1116 HD1        20.2760    7.8680    6.3670 ha        70 PS       0.124600
   1117 HE1        22.8860    8.3480    6.7170 ha        70 PS       0.105800
   1118 HZ         24.1760    8.9180    4.8670 ha        70 PS       0.124800
   1119 HE2        23.1760    9.1280    2.4670 ha        70 PS       0.105800
   1120 HD2        20.8460    8.9180    2.2470 ha        70 PS       0.124600
   1121 C2         18.2560    9.4480    3.8370 c3        71 PS       0.031000
   1122 C1         18.0660   10.1980    5.2170 c3        71 PS       0.000400
   1123 CG         17.0060    9.5080    6.0070 ca        71 PS       0.250900
   1124 CD1        17.3660    8.8580    7.1770 ca        71 PS      -0.270200
   1125 CE1        16.3960    8.0980    7.8470 ca        71 PS      -0.050500
   1126 CZ         15.1260    7.9680    7.3070 ca        71 PS      -0.188800
   1127 CE2        14.7160    8.5180    6.1070 ca        71 PS      -0.050500
   1128 CD2        15.6860    9.3380    5.4470 ca        71 PS      -0.270200
   1129 H21        18.8860    9.9880    3.1170 hc        71 PS      -0.016200
   1130 H22        17.2960    9.4280    3.3170 hc        71 PS      -0.016200
   1131 H1         19.0060   10.1980    5.7870 hc        71 PS      -0.005300
   1132 HD1        18.3660    8.9280    7.5970 ha        71 PS       0.124600
   1133 HE1        16.7860    7.6680    8.7670 ha        71 PS       0.105800
   1134 HZ         14.4060    7.3380    7.7970 ha        71 PS       0.124800
   1135 HE2        13.8360    8.1180    5.6170 ha        71 PS       0.105800
   1136 HD2        15.4260    9.7780    4.4870 ha        71 PS       0.124600
   1137 C2         17.8060   11.7380    5.0970 c3        72 PS       0.031000
   1138 C1         19.1360   12.5080    4.6370 c3        72 PS       0.000400
   1139 CG         20.1860   12.3780    5.7870 ca        72 PS       0.250900
   1140 CD1        21.4060   11.6780    5.6370 ca        72 PS      -0.270200
   1141 CE1        22.2860   11.4980    6.7270 ca        72 PS      -0.050500
   1142 CZ         21.7660   11.8480    8.0270 ca        72 PS      -0.188800
   1143 CE2        20.5460   12.5880    8.1970 ca        72 PS      -0.050500
   1144 CD2        19.8160   12.8680    7.0870 ca        72 PS      -0.270200
   1145 H21        17.0160   11.9880    4.3770 hc        72 PS      -0.016200
   1146 H22        17.4860   12.0480    6.0970 hc        72 PS      -0.016200
   1147 H1         19.6760   12.0680    3.7770 hc        72 PS      -0.005300
   1148 HD1        21.6060   11.2980    4.6370 ha        72 PS       0.124600
   1149 HE1        23.2360   10.9780    6.6170 ha        72 PS       0.105800
   1150 HZ         22.4860   11.7280    8.8270 ha        72 PS       0.124800
   1151 HE2        20.3260   12.9580    9.1870 ha        72 PS       0.105800
   1152 HD2        18.8960   13.4380    7.1770 ha        72 PS       0.124600
   1153 C2         18.7860   13.9980    4.2970 c3        73 PS       0.031000
   1154 C1         20.0760   14.7980    3.9970 c3        73 PS       0.000400
   1155 CG         20.8260   14.4380    2.7670 ca        73 PS       0.250900
   1156 CD1        22.2360   14.4280    2.8570 ca        73 PS      -0.270200
   1157 CE1        23.0360   13.9680    1.8470 ca        73 PS      -0.050500
   1158 CZ         22.4760   13.6380    0.5870 ca        73 PS      -0.188800
   1159 CE2        21.0660   13.7180    0.4470 ca        73 PS      -0.050500
   1160 CD2        20.2460   14.0980    1.5270 ca        73 PS      -0.270200
   1161 H21        18.0560   14.0680    3.4870 hc        73 PS      -0.016200
   1162 H22        18.2960   14.3780    5.1970 hc        73 PS      -0.016200
   1163 H1         20.7560   14.7580    4.8670 hc        73 PS      -0.005300
   1164 HD1        22.6860   14.7080    3.7970 ha        73 PS       0.124600
   1165 HE1        24.1160   13.9080    1.9770 ha        73 PS       0.105800
   1166 HZ         23.0860   13.3280   -0.2530 ha        73 PS       0.124800
   1167 HE2        20.6860   13.5180   -0.5530 ha        73 PS       0.105800
   1168 HD2        19.1760   14.1580    1.3470 ha        73 PS       0.124600
   1169 C2         19.6060   16.2880    3.9170 c3        74 PS       0.031000
   1170 C1         20.8160   17.3280    4.0570 c3        74 PS       0.000400
   1171 CG         21.7160   17.1980    5.3170 ca        74 PS       0.250900
   1172 CD1        21.1960   16.6880    6.5170 ca        74 PS      -0.270200
   1173 CE1        22.0460   16.4180    7.5970 ca        74 PS      -0.050500
   1174 CZ         23.4160   16.7580    7.5270 ca        74 PS      -0.188800
   1175 CE2        23.9660   17.3480    6.3370 ca        74 PS      -0.050500
   1176 CD2        23.0360   17.6880    5.3070 ca        74 PS      -0.270200
   1177 H21        19.1860   16.3280    2.9070 hc        74 PS      -0.016200
   1178 H22        18.8760   16.3880    4.7370 hc        74 PS      -0.016200
   1179 H1         21.5960   17.0080    3.3570 hc        74 PS      -0.005300
   1180 HD1        20.1660   16.3380    6.5170 ha        74 PS       0.124600
   1181 HE1        21.6060   15.9280    8.4670 ha        74 PS       0.105800
   1182 HZ         24.1160   16.4580    8.2970 ha        74 PS       0.124800
   1183 HE2        25.0460   17.4380    6.2770 ha        74 PS       0.105800
   1184 HD2        23.4160   18.2480    4.4570 ha        74 PS       0.124600
   1185 C2         20.4460   18.7680    3.5170 c3        75 PS       0.031000
   1186 C1         19.6060   19.6880    4.4470 c3        75 PS       0.000400
   1187 CG         18.7160   18.9580    5.4370 ca        75 PS       0.250900
   1188 CD1        19.0860   18.8380    6.7870 ca        75 PS      -0.270200
   1189 CE1        18.2560   18.0580    7.6370 ca        75 PS      -0.050500
   1190 CZ         16.9760   17.5680    7.2570 ca        75 PS      -0.188800
   1191 CE2        16.5460   17.8080    5.9270 ca        75 PS      -0.050500
   1192 CD2        17.4360   18.5280    5.0570 ca        75 PS      -0.270200
   1193 H21        21.2460   19.4580    3.2170 hc        75 PS      -0.016200
   1194 H22        19.9260   18.5480    2.5770 hc        75 PS      -0.016200
   1195 H1         20.2960   20.2880    5.0670 hc        75 PS      -0.005300
   1196 HD1        20.0560   19.2580    7.0670 ha        75 PS       0.124600
   1197 HE1        18.7360   17.8680    8.5870 ha        75 PS       0.105800
   1198 HZ         16.4360   16.9780    7.9870 ha        75 PS       0.124800
   1199 HE2        15.5960   17.3580    5.6270 ha        75 PS       0.105800
   1200 HD2        17.1460   18.5580    4.0170 ha        75 PS       0.124600
   1201 C2         18.8060   20.6980    3.5270 c3        76 PS       0.031000
   1202 C1         18.1660   21.8680    4.3670 c3        76 PS       0.000400
   1203 CG         17.1260   21.5680    5.4570 ca        76 PS       0.250900
   1204 CD1        17.3760   21.7680    6.7870 ca        76 PS      -0.270200
   1205 CE1        16.3760   21.7380    7.7570 ca        76 PS      -0.050500
   1206 CZ         15.1060   21.3880    7.3170 ca        76 PS      -0.188800
   1207 CE2        14.7660   21.1880    5.9670 ca        76 PS      -0.050500
   1208 CD2        15.7760   21.2980    5.0870 ca        76 PS      -0.270200
   1209 H21        19.4560   21.1280    2.7570 hc        76 PS      -0.016200
   1210 H22        18.0060   20.2280    2.9470 hc        76 PS      -0.016200
   1211 H1         18.9860   22.4280    4.8370 hc        76 PS      -0.005300
   1212 HD1        18.3560   22.0580    7.1770 ha        76 PS       0.124600
   1213 HE1        16.4460   22.0080    8.8070 ha        76 PS       0.105800
   1214 HZ         14.3260   21.3180    8.0770 ha        76 PS       0.124800
   1215 HE2        13.7760   20.8280    5.6970 ha        76 PS       0.105800
   1216 HD2        15.6160   21.1280    4.0170 ha        76 PS       0.124600
   1217 C2         17.6560   22.9180    3.3270 c3        77 PS       0.031000
   1218 C1         16.9260   24.1480    3.9870 c3        77 PS       0.000400
   1219 CG         17.6460   24.7680    5.2870 ca        77 PS       0.250900
   1220 CD1        16.9960   24.8780    6.4970 ca        77 PS      -0.270200
   1221 CE1        17.4660   25.7280    7.4970 ca        77 PS      -0.050500
   1222 CZ         18.7760   26.1880    7.4170 ca        77 PS      -0.188800
   1223 CE2        19.5160   25.9380    6.2170 ca        77 PS      -0.050500
   1224 CD2        18.9360   25.3080    5.1270 ca        77 PS      -0.270200
   1225 H21        18.4660   23.2980    2.6870 hc        77 PS      -0.016200
   1226 H22        16.8760   22.4680    2.6970 hc        77 PS      -0.016200
   1227 H1         15.9660   23.7480    4.3270 hc        77 PS      -0.005300
   1228 HD1        16.0560   24.3280    6.5870 ha        77 PS       0.124600
   1229 HE1        16.8760   25.9680    8.3770 ha        77 PS       0.105800
   1230 HZ         19.2660   26.7480    8.2070 ha        77 PS       0.124800
   1231 HE2        20.4660   26.4680    6.0970 ha        77 PS       0.105800
   1232 HD2        19.4560   25.2180    4.1770 ha        77 PS       0.124600
   1233 C2         16.5260   25.3480    2.9570 c3        78 PS       0.031000
   1234 C1         15.2160   26.1580    3.3370 c3        78 PS       0.000400
   1235 CG         13.9460   25.4480    3.0570 ca        78 PS       0.250900
   1236 CD1        13.1760   25.6480    1.8570 ca        78 PS      -0.270200
   1237 CE1        11.8560   25.2280    1.7570 ca        78 PS      -0.050500
   1238 CZ         11.4160   24.4180    2.8270 ca        78 PS      -0.188800
   1239 CE2        12.1760   24.1480    3.9170 ca        78 PS      -0.050500
   1240 CD2        13.3860   24.7080    4.0670 ca        78 PS      -0.270200
   1241 H21        17.4460   25.9380    2.9270 hc        78 PS      -0.016200
   1242 H22        16.4360   24.8980    1.9570 hc        78 PS      -0.016200
   1243 H1         15.2560   26.3580    4.4170 hc        78 PS      -0.005300
   1244 HD1        13.6060   26.2480    1.0670 ha        78 PS       0.124600
   1245 HE1        11.2860   25.4980    0.8770 ha        78 PS       0.105800
   1246 HZ         10.4060   24.0180    2.8470 ha        78 PS       0.124800
   1247 HE2        11.6260   23.6580    4.7170 ha        78 PS       0.105800
   1248 HD2        13.8760   24.4480    5.0070 ha        78 PS       0.124600
   1249 C2         15.3060   27.5980    2.8170 c3        79 PS       0.031000
   1250 C1         16.0860   28.5480    3.7370 c3        79 PS       0.000400
   1251 CG         15.2360   29.0280    4.9470 ca        79 PS       0.250900
   1252 CD1        15.6460   28.5080    6.1870 ca        79 PS      -0.270200
   1253 CE1        15.0160   28.9380    7.4270 ca        79 PS      -0.050500
   1254 CZ         13.9160   29.7980    7.4170 ca        79 PS      -0.188800
   1255 CE2        13.4660   30.2280    6.1570 ca        79 PS      -0.050500
   1256 CD2        14.1060   29.9280    4.9270 ca        79 PS      -0.270200
   1257 H21        15.7260   27.5880    1.7970 hc        79 PS      -0.016200
   1258 H22        14.3560   28.1180    2.6770 hc        79 PS      -0.016200
   1259 H1         16.9360   27.9380    4.0670 hc        79 PS      -0.005300
   1260 HD1        16.6060   27.9980    6.1870 ha        79 PS       0.124600
   1261 HE1        15.5660   28.8480    8.3570 ha        79 PS       0.105800
   1262 HZ         13.4260   30.0480    8.3470 ha        79 PS       0.124800
   1263 HE2        12.5960   30.8780    6.0970 ha        79 PS       0.105800
   1264 HD2        13.7360   30.4280    4.0370 ha        79 PS       0.124600
   1265 C2         16.5260   29.7380    2.8370 c3        80 PS       0.031000
   1266 C1         17.3560   30.7580    3.6870 c3        80 PS       0.000400
   1267 CG         18.5460   30.0080    4.1970 ca        80 PS       0.250900
   1268 CD1        18.7160   29.8380    5.5670 ca        80 PS      -0.270200
   1269 CE1        19.8660   29.3280    6.1370 ca        80 PS      -0.050500
   1270 CZ         21.0360   29.0180    5.3170 ca        80 PS      -0.188800
   1271 CE2        20.7960   29.0680    3.8770 ca        80 PS      -0.050500
   1272 CD2        19.5560   29.5180    3.3670 ca        80 PS      -0.270200
   1273 H21        17.1560   29.3580    2.0170 hc        80 PS      -0.016200
   1274 H22        15.6460   30.2680    2.4570 hc        80 PS      -0.016200
   1275 H1         16.6660   31.0580    4.4870 hc        80 PS      -0.005300
   1276 HD1        17.9860   30.1580    6.3070 ha        80 PS       0.124600
   1277 HE1        19.9660   29.4280    7.2170 ha        80 PS       0.105800
   1278 HZ         21.9860   28.6080    5.6570 ha        80 PS       0.124800
   1279 HE2        21.6460   28.8880    3.2370 ha        80 PS       0.105800
   1280 HD2        19.4760   29.6080    2.2870 ha        80 PS       0.124600
   1281 C2         17.6760   32.0480    2.8970 c3        81 PS       0.031000
   1282 C1         18.8660   32.8580    3.5770 c3        81 PS       0.000400
   1283 CG         18.5060   33.3780    4.9570 ca        81 PS       0.250900
   1284 CD1        19.4160   33.1480    5.9670 ca        81 PS      -0.270200
   1285 CE1        19.0260   33.2380    7.3370 ca        81 PS      -0.050500
   1286 CZ         17.7160   33.6280    7.5870 ca        81 PS      -0.188800
   1287 CE2        16.7360   33.8880    6.5870 ca        81 PS      -0.050500
   1288 CD2        17.2060   33.7880    5.3070 ca        81 PS      -0.270200
   1289 H21        17.9860   31.8580    1.8670 hc        81 PS      -0.016200
   1290 H22        16.7560   32.6280    2.7470 hc        81 PS      -0.016200
   1291 H1         19.7460   32.2080    3.7170 hc        81 PS      -0.005300
   1292 HD1        20.4160   32.7780    5.7470 ha        81 PS       0.124600
   1293 HE1        19.7260   33.0280    8.1370 ha        81 PS       0.105800
   1294 HZ         17.4860   33.7880    8.6370 ha        81 PS       0.124800
   1295 HE2        15.6960   34.0580    6.8670 ha        81 PS       0.105800
   1296 HD2        16.4560   33.9680    4.5470 ha        81 PS       0.124600
   1297 C2         19.3660   33.9980    2.5970 c3        82 PS       0.031000
   1298 C1         20.5060   34.8880    3.1170 c3        82 PS       0.000400
   1299 CG         21.5560   35.1180    2.1170 ca        82 PS       0.250900
   1300 CD1        22.7860   34.5980    2.3270 ca        82 PS      -0.270200
   1301 CE1        23.8860   34.7980    1.5570 ca        82 PS      -0.050500
   1302 CZ         23.7560   35.5880    0.4970 ca        82 PS      -0.188800
   1303 CE2        22.5660   36.2580    0.2070 ca        82 PS      -0.050500
   1304 CD2        21.4060   35.9880    0.9870 ca        82 PS      -0.270200
   1305 H21        19.6560   33.6080    1.6170 hc        82 PS      -0.016200
   1306 H22        18.5260   34.6580    2.3670 hc        82 PS      -0.016200
   1307 H1         20.9960   34.4780    4.0070 hc        82 PS      -0.005300
   1308 HD1        22.9060   33.9580    3.2070 ha        82 PS       0.124600
   1309 HE1        24.8260   34.3380    1.8170 ha        82 PS       0.105800
   1310 HZ         24.6560   35.7180   -0.0930 ha        82 PS       0.124800
   1311 HE2        22.5860   36.9980   -0.5830 ha        82 PS       0.105800
   1312 HD2        20.5060   36.5680    0.7570 ha        82 PS       0.124600
   1313 C2         19.9960   36.2680    3.6370 c3        83 PS       0.031000
   1314 C1         21.1460   37.1880    4.1770 c3        83 PS       0.000400
   1315 CG         21.7560   36.6480    5.3670 ca        83 PS       0.250900
   1316 CD1        23.1460   36.7880    5.5070 ca        83 PS      -0.270200
   1317 CE1        23.8260   36.3880    6.7670 ca        83 PS      -0.050500
   1318 CZ         23.0860   35.8080    7.7570 ca        83 PS      -0.188800
   1319 CE2        21.6760   35.6580    7.6170 ca        83 PS      -0.050500
   1320 CD2        21.0260   36.1180    6.4670 ca        83 PS      -0.270200
   1321 H21        19.5260   36.6380    2.7170 hc        83 PS      -0.016200
   1322 H22        19.1860   36.0580    4.3470 hc        83 PS      -0.016200
   1323 H1         21.8960   37.3180    3.3770 hc        83 PS      -0.005300
   1324 HD1        23.7760   37.1880    4.7170 ha        83 PS       0.124600
   1325 HE1        24.8860   36.5880    6.9070 ha        83 PS       0.105800
   1326 HZ         23.5860   35.4780    8.6570 ha        83 PS       0.124800
   1327 HE2        21.1160   35.1180    8.3870 ha        83 PS       0.105800
   1328 HD2        19.9460   36.0780    6.3970 ha        83 PS       0.124600
   1329 C2         20.5960   38.5580    4.5970 c3        84 PS       0.031000
   1330 C1         20.1660   39.4480    3.4570 c3        84 PS       0.000400
   1331 CG         21.4360   39.9480    2.6370 ca        84 PS       0.250900
   1332 CD1        22.4160   40.7780    3.2870 ca        84 PS      -0.270200
   1333 CE1        23.5360   41.1680    2.5370 ca        84 PS      -0.050500
   1334 CZ         23.6260   40.8780    1.1770 ca        84 PS      -0.188800
   1335 CE2        22.5860   40.2280    0.5270 ca        84 PS      -0.050500
   1336 CD2        21.4960   39.7180    1.2770 ca        84 PS      -0.270200
   1337 H21        19.8060   38.4380    5.3570 hc        84 PS      -0.016200
   1338 H22        21.4260   39.1080    5.0470 hc        84 PS      -0.016200
   1339 H1         19.4960   38.9980    2.7170 hc        84 PS      -0.005300
   1340 HD1        22.3660   40.9680    4.3470 ha        84 PS       0.124600
   1341 HE1        24.3760   41.6580    3.0170 ha        84 PS       0.105800
   1342 HZ         24.5560   41.1680    0.7070 ha        84 PS       0.124800
   1343 HE2        22.6760   40.0380   -0.5430 ha        84 PS       0.105800
   1344 HD2        20.7360   39.1380    0.7470 ha        84 PS       0.124600
   1345 C2         19.3260   40.7380    3.9870 c3        85 PS       0.031000
   1346 C1         18.0160   40.3880    4.7270 c3        85 PS       0.000400
   1347 CG         17.2860   39.2380    3.9770 ca        85 PS       0.250900
   1348 CD1        16.7760   39.4780    2.6970 ca        85 PS      -0.270200
   1349 CE1        16.1560   38.4580    1.9870 ca        85 PS      -0.050500
   1350 CZ         16.0060   37.1880    2.5670 ca        85 PS      -0.188800
   1351 CE2        16.3960   36.9580    3.8970 ca        85 PS      -0.050500
   1352 CD2        17.1060   37.9780    4.5770 ca        85 PS      -0.270200
   1353 H21        19.8960   41.3780    4.6770 hc        85 PS      -0.016200
   1354 H22        19.0160   41.3780    3.1470 hc        85 PS      -0.016200
   1355 H1         18.3260   40.0880    5.7270 hc        85 PS      -0.005300
   1356 HD1        16.8460   40.4880    2.3070 ha        85 PS       0.124600
   1357 HE1        15.7660   38.6180    0.9870 ha        85 PS       0.105800
   1358 HZ         15.5560   36.3980    1.9770 ha        85 PS       0.124800
   1359 HE2        16.1760   36.0680    4.4670 ha        85 PS       0.105800
   1360 HD2        17.3860   37.7280    5.5970 ha        85 PS       0.124600
   1361 C2         17.0660   41.6080    4.9170 c3        86 PS       0.031000
   1362 C1         16.6160   41.7680    6.4070 c3        86 PS       0.000400
   1363 CG         15.7860   40.5580    6.8170 ca        86 PS       0.250900
   1364 CD1        16.2260   39.5780    7.7670 ca        86 PS      -0.270200
   1365 CE1        15.6060   38.3880    7.9770 ca        86 PS      -0.050500
   1366 CZ         14.4660   38.0680    7.2570 ca        86 PS      -0.188800
   1367 CE2        13.9060   38.9780    6.3270 ca        86 PS      -0.050500
   1368 CD2        14.5560   40.2180    6.0270 ca        86 PS      -0.270200
   1369 H21        17.6160   42.5080    4.6170 hc        86 PS      -0.016200
   1370 H22        16.2160   41.6880    4.2170 hc        86 PS      -0.016200
   1371 H1         17.4760   41.8280    7.0770 hc        86 PS      -0.005300
   1372 HD1        17.1360   39.8080    8.3070 ha        86 PS       0.124600
   1373 HE1        15.9360   37.7580    8.7970 ha        86 PS       0.105800
   1374 HZ         13.9260   37.1980    7.6270 ha        86 PS       0.124800
   1375 HE2        13.0260   38.6580    5.7770 ha        86 PS       0.105800
   1376 HD2        14.2160   40.9180    5.2670 ha        86 PS       0.124600
   1377 C2         15.7460  -36.9320    6.7070 c3        87 PS       0.031000
   1378 C1         16.4460  -35.5720    6.7570 c3        87 PS       0.000400
   1379 CG         15.5860  -34.4220    7.1470 ca        87 PS       0.250900
   1380 CD1        15.9960  -33.0520    7.1270 ca        87 PS      -0.270200
   1381 CE1        15.1860  -32.0120    7.4670 ca        87 PS      -0.050500
   1382 CZ         13.9060  -32.3620    7.8770 ca        87 PS      -0.188800
   1383 CE2        13.4360  -33.6920    8.0070 ca        87 PS      -0.050500
   1384 CD2        14.2960  -34.7120    7.6470 ca        87 PS      -0.270200
   1385 H21        14.7860  -36.9620    6.1670 hc        87 PS      -0.016200
   1386 H22        15.4660  -37.1720    7.7470 hc        87 PS      -0.016200
   1387 H1         16.7260  -35.3020    5.7370 hc        87 PS      -0.005300
   1388 HD1        16.9360  -32.6920    6.7270 ha        87 PS       0.124600
   1389 HE1        15.5260  -30.9820    7.4670 ha        87 PS       0.105800
   1390 HZ         13.1560  -31.6020    8.0970 ha        87 PS       0.124800
   1391 HE2        12.4160  -33.8820    8.3370 ha        87 PS       0.105800
   1392 HD2        13.8560  -35.6920    7.7270 ha        87 PS       0.124600
   1393 C2         17.7960  -35.5620    7.5870 c3        88 PS       0.031000
   1394 C1         19.1160  -35.6020    6.7270 c3        88 PS       0.000400
   1395 CG         19.1460  -34.5220    5.7270 ca        88 PS       0.250900
   1396 CD1        19.4760  -33.1720    6.2470 ca        88 PS      -0.270200
   1397 CE1        19.4860  -32.1520    5.3370 ca        88 PS      -0.050500
   1398 CZ         19.0560  -32.4020    4.0370 ca        88 PS      -0.188800
   1399 CE2        18.7060  -33.7120    3.5570 ca        88 PS      -0.050500
   1400 CD2        18.8160  -34.7420    4.4070 ca        88 PS      -0.270200
   1401 H21        17.9360  -34.6420    8.1570 hc        88 PS      -0.016200
   1402 H22        17.7260  -36.3620    8.3370 hc        88 PS      -0.016200
   1403 H1         18.9560  -36.4820    6.0970 hc        88 PS      -0.005300
   1404 HD1        19.6060  -32.9720    7.3070 ha        88 PS       0.124600
   1405 HE1        19.7160  -31.2020    5.8070 ha        88 PS       0.105800
   1406 HZ         19.0660  -31.5320    3.3970 ha        88 PS       0.124800
   1407 HE2        18.3060  -33.7820    2.5570 ha        88 PS       0.105800
   1408 HD2        18.4960  -35.7020    3.9970 ha        88 PS       0.124600
   1409 C2         20.3760  -35.7620    7.7270 c3        89 PS       0.031000
   1410 C1         21.7060  -36.4420    7.1870 c3        89 PS       0.000400
   1411 CG         21.8160  -37.9220    7.4970 ca        89 PS       0.250900
   1412 CD1        23.0760  -38.5120    7.8870 ca        89 PS      -0.270200
   1413 CE1        23.1660  -39.8520    8.1470 ca        89 PS      -0.050500
   1414 CZ         22.0060  -40.6320    8.1870 ca        89 PS      -0.188800
   1415 CE2        20.6960  -40.1320    7.9070 ca        89 PS      -0.050500
   1416 CD2        20.6860  -38.7520    7.4870 ca        89 PS      -0.270200
   1417 H21        20.6060  -34.7620    8.1170 hc        89 PS      -0.016200
   1418 H22        20.0760  -36.3420    8.6070 hc        89 PS      -0.016200
   1419 H1         22.5060  -35.9920    7.7770 hc        89 PS      -0.005300
   1420 HD1        24.0160  -37.9720    7.8370 ha        89 PS       0.124600
   1421 HE1        24.1560  -40.2620    8.3370 ha        89 PS       0.105800
   1422 HZ         22.0060  -41.6020    8.6670 ha        89 PS       0.124800
   1423 HE2        19.7660  -40.6820    8.0070 ha        89 PS       0.105800
   1424 HD2        19.7560  -38.2920    7.1470 ha        89 PS       0.124600
   1425 C2         22.0260  -36.3520    5.5870 c3        90 PS       0.031000
   1426 C1         22.0960  -34.8920    5.2670 c3        90 PS       0.000400
   1427 CG         23.4460  -34.4320    5.4270 ca        90 PS       0.250900
   1428 CD1        23.6860  -33.7820    6.5770 ca        90 PS      -0.270200
   1429 CE1        24.9760  -33.4220    6.9170 ca        90 PS      -0.050500
   1430 CZ         25.9860  -33.6120    6.0070 ca        90 PS      -0.188800
   1431 CE2        25.7260  -34.0720    4.6670 ca        90 PS      -0.050500
   1432 CD2        24.3960  -34.4320    4.3670 ca        90 PS      -0.270200
   1433 H21        23.0260  -36.7020    5.2970 hc        90 PS      -0.016200
   1434 H22        21.3160  -36.9920    5.0470 hc        90 PS      -0.016200
   1435 H1         21.5860  -34.5120    4.3670 hc        90 PS      -0.005300
   1436 HD1        22.9360  -33.5320    7.3270 ha        90 PS       0.124600
   1437 HE1        25.1060  -32.9820    7.8970 ha        90 PS       0.105800
   1438 HZ         26.9860  -33.3720    6.3370 ha        90 PS       0.124800
   1439 HE2        26.4460  -34.2620    3.8770 ha        90 PS       0.105800
   1440 HD2        24.1060  -34.7920    3.3770 ha        90 PS       0.124600
   1441 C2         24.9360  -25.1920    7.5670 c3        91 PS       0.031000
   1442 C1         24.9560  -23.9420    6.7170 c3        91 PS       0.000400
   1443 CG         26.0060  -22.9720    7.3170 ca        91 PS       0.250900
   1444 CD1        25.5860  -21.6920    7.7370 ca        91 PS      -0.270200
   1445 CE1        26.5460  -20.7520    8.1070 ca        91 PS      -0.050500
   1446 CZ         27.8960  -21.1220    8.1670 ca        91 PS      -0.188800
   1447 CE2        28.2760  -22.3720    7.7770 ca        91 PS      -0.050500
   1448 CD2        27.3160  -23.3320    7.4270 ca        91 PS      -0.270200
   1449 H21        25.7460  -25.8320    7.1970 hc        91 PS      -0.016200
   1450 H22        23.9660  -25.6820    7.4170 hc        91 PS      -0.016200
   1451 H1         23.9760  -23.4620    6.6470 hc        91 PS      -0.005300
   1452 HD1        24.5460  -21.3720    7.7470 ha        91 PS       0.124600
   1453 HE1        26.1760  -19.7720    8.3670 ha        91 PS       0.105800
   1454 HZ         28.6160  -20.4220    8.5670 ha        91 PS       0.124800
   1455 HE2        29.3160  -22.6820    7.8070 ha        91 PS       0.105800
   1456 HD2        27.6860  -24.3320    7.2670 ha        91 PS       0.124600
   1457 C2         25.2960  -24.3420    5.2770 c3        92 PS       0.031000
   1458 C1         24.6960  -23.3820    4.1170 c3        92 PS       0.000400
   1459 CG         25.3760  -23.7220    2.7970 ca        92 PS       0.250900
   1460 CD1        25.3960  -25.0320    2.2870 ca        92 PS      -0.270200
   1461 CE1        26.0060  -25.3920    1.0970 ca        92 PS      -0.050500
   1462 CZ         26.5660  -24.3320    0.3270 ca        92 PS      -0.188800
   1463 CE2        26.4160  -23.0020    0.7270 ca        92 PS      -0.050500
   1464 CD2        25.8260  -22.6920    1.9370 ca        92 PS      -0.270200
   1465 H21        26.3760  -24.3120    5.1270 hc        92 PS      -0.016200
   1466 H22        25.0460  -25.4120    5.1670 hc        92 PS      -0.016200
   1467 H1         24.8960  -22.3420    4.3970 hc        92 PS      -0.005300
   1468 HD1        24.9760  -25.8420    2.8870 ha        92 PS       0.124600
   1469 HE1        25.9960  -26.4320    0.7870 ha        92 PS       0.105800
   1470 HZ         26.9860  -24.4620   -0.6630 ha        92 PS       0.124800
   1471 HE2        26.7160  -22.2020    0.0570 ha        92 PS       0.105800
   1472 HD2        25.6960  -21.6420    2.1670 ha        92 PS       0.124600
   1473 C2         23.1560  -23.5320    3.9470 c3        93 PS       0.031000
   1474 C1         22.4660  -22.5620    2.9070 c3        93 PS       0.000400
   1475 CG         22.6760  -22.9720    1.4170 ca        93 PS       0.250900
   1476 CD1        22.3560  -24.2720    0.9670 ca        93 PS      -0.270200
   1477 CE1        22.6160  -24.6220   -0.4030 ca        93 PS      -0.050500
   1478 CZ         22.9460  -23.6620   -1.3130 ca        93 PS      -0.188800
   1479 CE2        23.2860  -22.3420   -0.9130 ca        93 PS      -0.050500
   1480 CD2        23.0960  -22.0220    0.4470 ca        93 PS      -0.270200
   1481 H21        22.8060  -24.5220    3.6470 hc        93 PS      -0.016200
   1482 H22        22.6460  -23.2820    4.8870 hc        93 PS      -0.016200
   1483 H1         22.8660  -21.5520    3.0570 hc        93 PS      -0.005300
   1484 HD1        22.0860  -25.1020    1.6170 ha        93 PS       0.124600
   1485 HE1        22.4160  -25.6520   -0.6930 ha        93 PS       0.105800
   1486 HZ         22.9460  -23.9520   -2.3630 ha        93 PS       0.124800
   1487 HE2        23.4960  -21.6320   -1.7030 ha        93 PS       0.105800
   1488 HD2        23.3160  -21.0220    0.8270 ha        93 PS       0.124600
   1489 C2         20.9860  -22.5520    3.1470 c3        94 PS       0.031000
   1490 C1         20.5960  -21.7020    4.3870 c3        94 PS       0.000400
   1491 CG         19.7860  -22.4420    5.3670 ca        94 PS       0.250900
   1492 CD1        20.3560  -23.0720    6.4870 ca        94 PS      -0.270200
   1493 CE1        19.7060  -24.0520    7.2070 ca        94 PS      -0.050500
   1494 CZ         18.3660  -24.2920    7.0070 ca        94 PS      -0.188800
   1495 CE2        17.7160  -23.6120    5.9970 ca        94 PS      -0.050500
   1496 CD2        18.3860  -22.7420    5.1170 ca        94 PS      -0.270200
   1497 H21        20.4360  -22.2620    2.2470 hc        94 PS      -0.016200
   1498 H22        20.6460  -23.5620    3.3970 hc        94 PS      -0.016200
   1499 H1         21.5560  -21.3120    4.7470 hc        94 PS      -0.005300
   1500 HD1        21.3960  -22.8620    6.7170 ha        94 PS       0.124600
   1501 HE1        20.2860  -24.5220    7.9970 ha        94 PS       0.105800
   1502 HZ         17.8960  -25.0920    7.5570 ha        94 PS       0.124800
   1503 HE2        16.6560  -23.7020    5.8270 ha        94 PS       0.105800
   1504 HD2        17.8160  -22.4320    4.2470 ha        94 PS       0.124600
   1505 C2         19.8460  -20.3920    3.8170 c3        95 PS       0.031000
   1506 C1         19.5160  -19.3820    4.9470 c3        95 PS       0.000400
   1507 CG         20.6660  -18.8820    5.7170 ca        95 PS       0.250900
   1508 CD1        21.0660  -19.5320    6.9470 ca        95 PS      -0.270200
   1509 CE1        22.0160  -18.8720    7.8070 ca        95 PS      -0.050500
   1510 CZ         22.6660  -17.6520    7.4570 ca        95 PS      -0.188800
   1511 CE2        22.3560  -17.1820    6.1870 ca        95 PS      -0.050500
   1512 CD2        21.3960  -17.7420    5.3070 ca        95 PS      -0.270200
   1513 H21        20.4360  -19.8420    3.0670 hc        95 PS      -0.016200
   1514 H22        18.8660  -20.5920    3.3570 hc        95 PS      -0.016200
   1515 H1         18.8660  -19.9920    5.5770 hc        95 PS      -0.005300
   1516 HD1        20.5360  -20.4120    7.3070 ha        95 PS       0.124600
   1517 HE1        22.2960  -19.3820    8.7270 ha        95 PS       0.105800
   1518 HZ         23.4560  -17.2720    8.0870 ha        95 PS       0.124800
   1519 HE2        22.8060  -16.2720    5.8070 ha        95 PS       0.105800
   1520 HD2        21.1560  -17.2220    4.3870 ha        95 PS       0.124600
   1521 C2         18.5160  -18.2920    4.4570 c3        96 PS       0.031000
   1522 C1         17.5060  -17.7620    5.6170 c3        96 PS       0.000400
   1523 CG         18.1160  -16.5920    6.3470 ca        96 PS       0.250900
   1524 CD1        18.0060  -15.2220    5.8770 ca        96 PS      -0.270200
   1525 CE1        18.5460  -14.1320    6.6270 ca        96 PS      -0.050500
   1526 CZ         19.2460  -14.4120    7.8370 ca        96 PS      -0.188800
   1527 CE2        19.3660  -15.7220    8.2770 ca        96 PS      -0.050500
   1528 CD2        18.8760  -16.7620    7.4970 ca        96 PS      -0.270200
   1529 H21        19.0560  -17.4720    3.9570 hc        96 PS      -0.016200
   1530 H22        17.9260  -18.6720    3.6170 hc        96 PS      -0.016200
   1531 H1         17.3060  -18.4820    6.4170 hc        96 PS      -0.005300
   1532 HD1        17.4860  -14.9720    4.9570 ha        96 PS       0.124600
   1533 HE1        18.5460  -13.1120    6.2570 ha        96 PS       0.105800
   1534 HZ         19.7460  -13.6020    8.3570 ha        96 PS       0.124800
   1535 HE2        20.0460  -15.9720    9.0770 ha        96 PS       0.105800
   1536 HD2        19.0260  -17.7820    7.8470 ha        96 PS       0.124600
   1537 C2         16.0660  -17.4620    5.0270 c3        97 PS       0.031000
   1538 C1         15.2060  -18.7220    4.7270 c3        97 PS       0.000400
   1539 CG         14.8460  -19.5920    5.9370 ca        97 PS       0.250900
   1540 CD1        15.1360  -20.9820    5.9070 ca        97 PS      -0.270200
   1541 CE1        14.6360  -21.8320    6.8670 ca        97 PS      -0.050500
   1542 CZ         13.9360  -21.3220    7.9370 ca        97 PS      -0.188800
   1543 CE2        13.6560  -19.9520    8.0270 ca        97 PS      -0.050500
   1544 CD2        14.0860  -19.1420    7.0270 ca        97 PS      -0.270200
   1545 H21        15.5160  -16.8620    5.7670 hc        97 PS      -0.016200
   1546 H22        16.1360  -16.9220    4.0770 hc        97 PS      -0.016200
   1547 H1         15.8060  -19.3320    4.0470 hc        97 PS      -0.005300
   1548 HD1        15.7060  -21.3920    5.0770 ha        97 PS       0.124600
   1549 HE1        14.8760  -22.8920    6.7870 ha        97 PS       0.105800
   1550 HZ         13.5160  -21.9920    8.6870 ha        97 PS       0.124800
   1551 HE2        13.1260  -19.4820    8.8570 ha        97 PS       0.105800
   1552 HD2        13.9460  -18.0920    7.2370 ha        97 PS       0.124600
   1553 C2         14.0460  -18.5820    3.7470 c3        98 PS       0.031000
   1554 C1         12.7060  -17.9420    4.2470 c3        98 PS       0.000400
   1555 CG         11.6960  -18.2320    3.1170 ca        98 PS       0.250900
   1556 CD1        10.9260  -19.4020    3.1270 ca        98 PS      -0.270200
   1557 CE1        10.0360  -19.7520    2.0770 ca        98 PS      -0.050500
   1558 CZ          9.9460  -18.8620    1.0170 ca        98 PS      -0.188800
   1559 CE2        10.8260  -17.7420    0.8370 ca        98 PS      -0.050500
   1560 CD2        11.6360  -17.3920    1.9670 ca        98 PS      -0.270200
   1561 H21        14.3060  -17.9120    2.9170 hc        98 PS      -0.016200
   1562 H22        13.8260  -19.5920    3.3970 hc        98 PS      -0.016200
   1563 H1         12.3460  -18.4420    5.1470 hc        98 PS      -0.005300
   1564 HD1        10.8760  -19.9520    4.0670 ha        98 PS       0.124600
   1565 HE1         9.5260  -20.7120    2.0470 ha        98 PS       0.105800
   1566 HZ          9.3360  -19.1220    0.1670 ha        98 PS       0.124800
   1567 HE2        10.7160  -17.2020   -0.0930 ha        98 PS       0.105800
   1568 HD2        12.1860  -16.4520    1.9670 ha        98 PS       0.124600
   1569 C2         12.7960  -16.4020    4.5470 c3        99 PS       0.031000
   1570 C1         11.4660  -15.6420    4.7570 c3        99 PS       0.000400
   1571 CG         10.5560  -16.2420    5.8170 ca        99 PS       0.250900
   1572 CD1         9.1460  -16.2320    5.5670 ca        99 PS      -0.270200
   1573 CE1         8.2460  -16.7720    6.4670 ca        99 PS      -0.050500
   1574 CZ          8.7660  -17.1720    7.7270 ca        99 PS      -0.188800
   1575 CE2        10.1460  -17.2220    7.9270 ca        99 PS      -0.050500
   1576 CD2        11.0760  -16.6120    7.0470 ca        99 PS      -0.270200
   1577 H21        13.4360  -16.2220    5.4170 hc        99 PS      -0.016200
   1578 H22        13.4060  -15.9820    3.7470 hc        99 PS      -0.016200
   1579 H1         10.8260  -15.5620    3.8670 hc        99 PS      -0.005300
   1580 HD1         8.8460  -15.8320    4.6070 ha        99 PS       0.124600
   1581 HE1         7.1860  -16.6220    6.3170 ha        99 PS       0.105800
   1582 HZ          8.0460  -17.4920    8.4770 ha        99 PS       0.124800
   1583 HE2        10.4960  -17.6220    8.8770 ha        99 PS       0.105800
   1584 HD2        12.1060  -16.4220    7.3470 ha        99 PS       0.124600
   1585 C2         11.8260  -14.1620    5.1070 c3       100 PS       0.031000
   1586 C1         10.6260  -13.1720    5.4270 c3       100 PS       0.000400
   1587 CG         11.2260  -11.9020    6.1370 ca       100 PS       0.250900
   1588 CD1        10.8160  -11.5020    7.4070 ca       100 PS      -0.270200
   1589 CE1        11.4660  -10.3320    7.9370 ca       100 PS      -0.050500
   1590 CZ         12.1960   -9.4420    7.1170 ca       100 PS      -0.188800
   1591 CE2        12.6760   -9.8420    5.8770 ca       100 PS      -0.050500
   1592 CD2        12.1860  -11.1020    5.3870 ca       100 PS      -0.270200
   1593 H21        12.5060  -14.2320    5.9770 hc       100 PS      -0.016200
   1594 H22        12.3460  -13.7020    4.2570 hc       100 PS      -0.016200
   1595 H1          9.8560  -13.5920    6.0770 hc       100 PS      -0.005300
   1596 HD1        10.0160  -12.0320    7.8970 ha       100 PS       0.124600
   1597 HE1        11.1760  -10.0120    8.9370 ha       100 PS       0.105800
   1598 HZ         12.3860   -8.4520    7.5170 ha       100 PS       0.124800
   1599 HE2        13.2660   -9.0720    5.3870 ha       100 PS       0.105800
   1600 HD2        12.4060  -11.2920    4.3370 ha       100 PS       0.124600
   1601 C2          9.8960  -12.7520    4.1570 c3       101 PS       0.031000
   1602 C1          8.7360  -11.6820    4.4870 c3       101 PS       0.000400
   1603 CG          7.6460  -12.3320    5.3670 ca       101 PS       0.250900
   1604 CD1         6.8160  -13.3820    5.0070 ca       101 PS      -0.270200
   1605 CE1         6.0760  -14.0320    5.9470 ca       101 PS      -0.050500
   1606 CZ          6.0060  -13.6120    7.2870 ca       101 PS      -0.188800
   1607 CE2         6.6360  -12.4020    7.5670 ca       101 PS      -0.050500
   1608 CD2         7.4360  -11.8020    6.5970 ca       101 PS      -0.270200
   1609 H21        10.6260  -12.3020    3.4770 hc       101 PS      -0.016200
   1610 H22         9.5160  -13.6620    3.6570 hc       101 PS      -0.016200
   1611 H1          9.2560  -10.9420    5.1070 hc       101 PS      -0.005300
   1612 HD1         6.7860  -13.7220    3.9770 ha       101 PS       0.124600
   1613 HE1         5.4960  -14.9020    5.6370 ha       101 PS       0.105800
   1614 HZ          5.4260  -14.1420    8.0270 ha       101 PS       0.124800
   1615 HE2         6.6060  -11.9320    8.5470 ha       101 PS       0.105800
   1616 HD2         7.8860  -10.8820    6.9670 ha       101 PS       0.124600
   1617 C2          8.1560  -10.9420    3.2470 c3       102 PS       0.031000
   1618 C1          8.0060   -9.3820    3.2970 c3       102 PS       0.000400
   1619 CG          8.4060   -8.6220    4.6170 ca       102 PS       0.250900
   1620 CD1         9.6160   -7.9020    4.5870 ca       102 PS      -0.270200
   1621 CE1        10.0660   -7.1820    5.6970 ca       102 PS      -0.050500
   1622 CZ          9.3560   -7.2520    6.8770 ca       102 PS      -0.188800
   1623 CE2         8.1360   -7.9920    6.8870 ca       102 PS      -0.050500
   1624 CD2         7.6560   -8.6620    5.7870 ca       102 PS      -0.270200
   1625 H21         8.8160  -11.1820    2.4070 hc       102 PS      -0.016200
   1626 H22         7.1960  -11.4220    3.0170 hc       102 PS      -0.016200
   1627 H1          8.5860   -8.9920    2.4570 hc       102 PS      -0.005300
   1628 HD1        10.1760   -7.8720    3.6670 ha       102 PS       0.124600
   1629 HE1        10.9460   -6.5720    5.5870 ha       102 PS       0.105800
   1630 HZ          9.7560   -6.7620    7.7570 ha       102 PS       0.124800
   1631 HE2         7.6060   -7.9220    7.8370 ha       102 PS       0.105800
   1632 HD2         6.7260   -9.2020    5.8870 ha       102 PS       0.124600
   1633 C2          6.4860   -9.1520    2.8670 c3       103 PS       0.031000
   1634 C1          6.0660   -7.6320    2.7370 c3       103 PS       0.000400
   1635 CG          6.9260   -6.8620    1.6970 ca       103 PS       0.250900
   1636 CD1         6.9860   -7.3620    0.3370 ca       103 PS      -0.270200
   1637 CE1         7.6360   -6.5520   -0.6030 ca       103 PS      -0.050500
   1638 CZ          8.1760   -5.3220   -0.2930 ca       103 PS      -0.188800
   1639 CE2         8.2760   -4.8820    1.0270 ca       103 PS      -0.050500
   1640 CD2         7.5960   -5.6020    2.0170 ca       103 PS      -0.270200
   1641 H21         6.1160   -9.7820    2.0470 hc       103 PS      -0.016200
   1642 H22         5.8360   -9.6120    3.6270 hc       103 PS      -0.016200
   1643 H1          6.1760   -7.2420    3.7570 hc       103 PS      -0.005300
   1644 HD1         6.4560   -8.2820    0.1070 ha       103 PS       0.124600
   1645 HE1         7.5360   -6.8920   -1.6330 ha       103 PS       0.105800
   1646 HZ          8.6360   -4.6720   -1.0330 ha       103 PS       0.124800
   1647 HE2         8.6960   -3.9120    1.2570 ha       103 PS       0.105800
   1648 HD2         7.3960   -5.1720    2.9970 ha       103 PS       0.124600
   1649 C2          4.5660   -7.5020    2.5570 c3       104 PS       0.031000
   1650 C1          3.8360   -6.5320    3.6370 c3       104 PS       0.000400
   1651 CG          3.9660   -7.0820    5.0570 ca       104 PS       0.250900
   1652 CD1         4.5860   -6.2620    6.0670 ca       104 PS      -0.270200
   1653 CE1         4.7160   -6.8320    7.3570 ca       104 PS      -0.050500
   1654 CZ          4.2360   -8.1220    7.6070 ca       104 PS      -0.188800
   1655 CE2         3.6560   -8.9220    6.6270 ca       104 PS      -0.050500
   1656 CD2         3.7060   -8.4420    5.3170 ca       104 PS      -0.270200
   1657 H21         4.2360   -7.0920    1.5970 hc       104 PS      -0.016200
   1658 H22         4.0760   -8.4820    2.5770 hc       104 PS      -0.016200
   1659 H1          4.3160   -5.5520    3.6370 hc       104 PS      -0.005300
   1660 HD1         4.7160   -5.1920    5.9070 ha       104 PS       0.124600
   1661 HE1         5.1360   -6.2520    8.1670 ha       104 PS       0.105800
   1662 HZ          4.2360   -8.4820    8.6270 ha       104 PS       0.124800
   1663 HE2         3.1760   -9.8720    6.8470 ha       104 PS       0.105800
   1664 HD2         3.2760   -9.0920    4.5670 ha       104 PS       0.124600
   1665 C2          2.3360   -6.3020    3.3070 c3       105 PS       0.031000
   1666 C1          1.6860   -5.3620    4.3170 c3       105 PS       0.000400
   1667 CG          0.9060   -6.1620    5.4870 ca       105 PS       0.250900
   1668 CD1         1.2960   -5.9920    6.8270 ca       105 PS      -0.270200
   1669 CE1         0.7060   -6.7020    7.8970 ca       105 PS      -0.050500
   1670 CZ         -0.2040   -7.6620    7.5070 ca       105 PS      -0.188800
   1671 CE2        -0.6740   -7.7420    6.1670 ca       105 PS      -0.050500
   1672 CD2        -0.1440   -6.9820    5.1370 ca       105 PS      -0.270200
   1673 H21         2.2360   -5.9720    2.2670 hc       105 PS      -0.016200
   1674 H22         1.7460   -7.2220    3.3970 hc       105 PS      -0.016200
   1675 H1          2.5060   -4.7820    4.7570 hc       105 PS      -0.005300
   1676 HD1         2.1060   -5.2820    7.0070 ha       105 PS       0.124600
   1677 HE1         0.9760   -6.5020    8.9370 ha       105 PS       0.105800
   1678 HZ         -0.7240   -8.2320    8.2770 ha       105 PS       0.124800
   1679 HE2        -1.5240   -8.3820    5.9270 ha       105 PS       0.105800
   1680 HD2        -0.5340   -7.0320    4.1270 ha       105 PS       0.124600
   1681 C2          0.8460   -4.2820    3.5170 c3       106 PS       0.031000
   1682 C1          0.1960   -3.2020    4.4070 c3       106 PS       0.000400
   1683 CG         -1.0640   -3.7920    5.1670 ca       106 PS       0.250900
   1684 CD1        -1.0840   -3.9020    6.6070 ca       106 PS      -0.270200
   1685 CE1        -2.1140   -4.6020    7.2470 ca       106 PS      -0.050500
   1686 CZ         -3.2540   -4.9920    6.5570 ca       106 PS      -0.188800
   1687 CE2        -3.3140   -4.7720    5.1870 ca       106 PS      -0.050500
   1688 CD2        -2.1540   -4.2820    4.5070 ca       106 PS      -0.270200
   1689 H21         1.4960   -3.8420    2.7470 hc       106 PS      -0.016200
   1690 H22         0.1860   -4.9920    3.0070 hc       106 PS      -0.016200
   1691 H1          0.8760   -2.8020    5.1870 hc       106 PS      -0.005300
   1692 HD1        -0.1640   -3.5920    7.0870 ha       106 PS       0.124600
   1693 HE1        -2.0040   -4.8520    8.2970 ha       106 PS       0.105800
   1694 HZ         -4.0440   -5.4520    7.1370 ha       106 PS       0.124800
   1695 HE2        -4.1440   -5.0920    4.5470 ha       106 PS       0.105800
   1696 HD2        -2.0440   -4.3420    3.4270 ha       106 PS       0.124600
   1697 C2         -0.2640   -2.0220    3.5870 c3       107 PS       0.031000
   1698 C1         -1.2040   -0.9220    4.1770 c3       107 PS       0.000400
   1699 CG         -0.5240    0.0180    5.1670 ca       107 PS       0.250900
   1700 CD1        -0.8740    0.0480    6.5670 ca       107 PS      -0.270200
   1701 CE1        -0.2440    0.9180    7.4370 ca       107 PS      -0.050500
   1702 CZ          0.7360    1.7980    6.9770 ca       107 PS      -0.188800
   1703 CE2         1.1260    1.7780    5.6770 ca       107 PS      -0.050500
   1704 CD2         0.5660    0.8180    4.7870 ca       107 PS      -0.270200
   1705 H21         0.5960   -1.4820    3.1770 hc       107 PS      -0.016200
   1706 H22        -0.8140   -2.5120    2.7670 hc       107 PS      -0.016200
   1707 H1         -2.0040   -1.4320    4.7370 hc       107 PS      -0.005300
   1708 HD1        -1.6240   -0.5520    7.0770 ha       107 PS       0.124600
   1709 HE1        -0.4940    0.9080    8.4870 ha       107 PS       0.105800
   1710 HZ          1.2960    2.5080    7.5770 ha       107 PS       0.124800
   1711 HE2         1.8260    2.4680    5.2170 ha       107 PS       0.105800
   1712 HD2         0.8160    0.6980    3.7470 ha       107 PS       0.124600
   1713 C2         -1.9440   -0.1820    3.0570 c3       108 PS       0.031000
   1714 C1         -3.3540    0.3180    3.5870 c3       108 PS       0.000400
   1715 CG         -4.3440   -0.8020    3.6470 ca       108 PS       0.250900
   1716 CD1        -4.4840   -1.5520    4.8870 ca       108 PS      -0.270200
   1717 CE1        -5.5140   -2.4820    4.9770 ca       108 PS      -0.050500
   1718 CZ         -6.3240   -2.8120    3.9270 ca       108 PS      -0.188800
   1719 CE2        -6.0940   -2.1820    2.6370 ca       108 PS      -0.050500
   1720 CD2        -5.0740   -1.2420    2.5570 ca       108 PS      -0.270200
   1721 H21        -1.3540    0.5980    2.5570 hc       108 PS      -0.016200
   1722 H22        -2.1640   -0.9220    2.2770 hc       108 PS      -0.016200
   1723 H1         -3.1140    0.6180    4.6170 hc       108 PS      -0.005300
   1724 HD1        -4.0040   -1.2820    5.8270 ha       108 PS       0.124600
   1725 HE1        -5.6140   -3.0020    5.9270 ha       108 PS       0.105800
   1726 HZ         -7.1440   -3.5220    4.0570 ha       108 PS       0.124800
   1727 HE2        -6.8040   -2.4120    1.8470 ha       108 PS       0.105800
   1728 HD2        -4.8640   -0.8420    1.5670 ha       108 PS       0.124600
   1729 C2         -3.8440    1.6980    2.9870 c3       109 PS       0.031000
   1730 C1         -3.1040    2.8280    3.7170 c3       109 PS       0.000400
   1731 CG         -3.6940    3.0080    5.1170 ca       109 PS       0.250900
   1732 CD1        -2.8440    3.0280    6.2270 ca       109 PS      -0.270200
   1733 CE1        -3.4140    3.1180    7.5170 ca       109 PS      -0.050500
   1734 CZ         -4.7540    3.3180    7.7470 ca       109 PS      -0.188800
   1735 CE2        -5.6140    3.3780    6.6770 ca       109 PS      -0.050500
   1736 CD2        -5.0940    3.2580    5.3870 ca       109 PS      -0.270200
   1737 H21        -3.5240    1.7180    1.9370 hc       109 PS      -0.016200
   1738 H22        -4.9440    1.7580    3.0270 hc       109 PS      -0.016200
   1739 H1         -2.0740    2.4380    3.6770 hc       109 PS      -0.005300
   1740 HD1        -1.7640    2.9480    6.1470 ha       109 PS       0.124600
   1741 HE1        -2.7140    2.9480    8.3270 ha       109 PS       0.105800
   1742 HZ         -5.1240    3.3980    8.7570 ha       109 PS       0.124800
   1743 HE2        -6.6740    3.4780    6.8770 ha       109 PS       0.105800
   1744 HD2        -5.7940    3.4380    4.5670 ha       109 PS       0.124600
   1745 C2         -3.2040    4.1080    2.7970 c3       110 PS       0.031000
   1746 C1         -1.9340    4.9380    3.1570 c3       110 PS       0.000400
   1747 CG         -0.7840    4.3980    2.3370 ca       110 PS       0.250900
   1748 CD1         0.3460    3.8680    3.0170 ca       110 PS      -0.270200
   1749 CE1         1.5060    3.3280    2.4170 ca       110 PS      -0.050500
   1750 CZ          1.4660    3.3580    1.0170 ca       110 PS      -0.188800
   1751 CE2         0.3460    3.8880    0.2570 ca       110 PS      -0.050500
   1752 CD2        -0.7240    4.4080    0.9570 ca       110 PS      -0.270200
   1753 H21        -3.1340    3.7880    1.7570 hc       110 PS      -0.016200
   1754 H22        -4.1040    4.7180    2.9070 hc       110 PS      -0.016200
   1755 H1         -1.6840    4.8480    4.2170 hc       110 PS      -0.005300
   1756 HD1         0.3360    3.8980    4.1070 ha       110 PS       0.124600
   1757 HE1         2.4360    3.0480    2.8970 ha       110 PS       0.105800
   1758 HZ          2.2960    2.9780    0.4170 ha       110 PS       0.124800
   1759 HE2         0.5060    3.9280   -0.8130 ha       110 PS       0.105800
   1760 HD2        -1.5940    4.7980    0.4370 ha       110 PS       0.124600
   1761 C2         -2.2940    6.3980    2.8170 c3       111 PS       0.031000
   1762 C1         -1.1340    7.4680    3.0370 c3       111 PS       0.000400
   1763 CG         -0.5840    7.1980    4.4170 ca       111 PS       0.250900
   1764 CD1         0.7760    6.7780    4.6170 ca       111 PS      -0.270200
   1765 CE1         1.2860    6.4080    5.8670 ca       111 PS      -0.050500
   1766 CZ          0.4360    6.5880    7.0070 ca       111 PS      -0.188800
   1767 CE2        -0.9440    6.9980    6.8370 ca       111 PS      -0.050500
   1768 CD2        -1.4240    7.3380    5.5270 ca       111 PS      -0.270200
   1769 H21        -2.6240    6.4180    1.7670 hc       111 PS      -0.016200
   1770 H22        -3.1140    6.7480    3.4470 hc       111 PS      -0.016200
   1771 H1         -0.3340    7.2280    2.3270 hc       111 PS      -0.005300
   1772 HD1         1.4760    6.7280    3.7870 ha       111 PS       0.124600
   1773 HE1         2.3060    6.0380    5.9870 ha       111 PS       0.105800
   1774 HZ          0.7660    6.1680    7.9470 ha       111 PS       0.124800
   1775 HE2        -1.5940    7.1580    7.6870 ha       111 PS       0.105800
   1776 HD2        -2.4440    7.7180    5.4570 ha       111 PS       0.124600
   1777 C2         -1.6640    8.9280    2.8770 c3       112 PS       0.031000
   1778 C1         -2.3040    9.3880    1.4870 c3       112 PS       0.000400
   1779 CG         -2.6940   10.8580    1.4070 ca       112 PS       0.250900
   1780 CD1        -3.9940   11.1080    1.0070 ca       112 PS      -0.270200
   1781 CE1        -4.4440   12.4580    0.7670 ca       112 PS      -0.050500
   1782 CZ         -3.6440   13.5480    0.8970 ca       112 PS      -0.188800
   1783 CE2        -2.2940   13.2980    1.3170 ca       112 PS      -0.050500
   1784 CD2        -1.8140   11.9380    1.5470 ca       112 PS      -0.270200
   1785 H21        -2.3340    9.1380    3.7270 hc       112 PS      -0.016200
   1786 H22        -0.7840    9.5680    3.0370 hc       112 PS      -0.016200
   1787 H1         -3.2040    8.7580    1.4070 hc       112 PS      -0.005300
   1788 HD1        -4.6140   10.2580    0.7270 ha       112 PS       0.124600
   1789 HE1        -5.4740   12.6180    0.4470 ha       112 PS       0.105800
   1790 HZ         -4.0140   14.5280    0.6070 ha       112 PS       0.124800
   1791 HE2        -1.6640   14.1780    1.3770 ha       112 PS       0.105800
   1792 HD2        -0.7440   11.9080    1.7270 ha       112 PS       0.124600
   1793 C2         -1.3340    9.1280    0.3170 c3       113 PS       0.031000
   1794 C1         -1.9640    9.3780   -1.0930 c3       113 PS       0.000400
   1795 CG         -3.1640    8.3880   -1.3630 ca       113 PS       0.250900
   1796 CD1        -4.4240    8.8880   -1.7530 ca       113 PS      -0.270200
   1797 CE1        -5.5040    8.0180   -1.8830 ca       113 PS      -0.050500
   1798 CZ         -5.3040    6.6380   -1.4830 ca       113 PS      -0.188800
   1799 CE2        -4.0140    6.1180   -1.2230 ca       113 PS      -0.050500
   1800 CD2        -2.9540    7.0180   -1.2330 ca       113 PS      -0.270200
   1801 H21        -0.5040    9.8280    0.4870 hc       113 PS      -0.016200
   1802 H22        -0.9240    8.1080    0.3170 hc       113 PS      -0.016200
   1803 H1         -2.5040   10.3380   -1.0530 hc       113 PS      -0.005300
   1804 HD1        -4.4540    9.9680   -1.9130 ha       113 PS       0.124600
   1805 HE1        -6.4740    8.4180   -2.1430 ha       113 PS       0.105800
   1806 HZ         -6.1040    5.9080   -1.4130 ha       113 PS       0.124800
   1807 HE2        -3.8340    5.1380   -0.7930 ha       113 PS       0.105800
   1808 HD2        -1.9540    6.6280   -1.0430 ha       113 PS       0.124600
   1809 C2         -0.9940    9.5080   -2.3130 c3       114 PS       0.031000
   1810 C1         -1.7040   10.0680   -3.6030 c3       114 PS       0.000400
   1811 CG         -0.8840    9.7880   -4.8530 ca       114 PS       0.250900
   1812 CD1        -1.4940    9.4280   -6.0630 ca       114 PS      -0.270200
   1813 CE1        -0.8240    9.1280   -7.1730 ca       114 PS      -0.050500
   1814 CZ          0.5660    9.1680   -7.1930 ca       114 PS      -0.188800
   1815 CE2         1.2860    9.5580   -6.0030 ca       114 PS      -0.050500
   1816 CD2         0.5260    9.8080   -4.8430 ca       114 PS      -0.270200
   1817 H21        -0.1440   10.1580   -2.0830 hc       114 PS      -0.016200
   1818 H22        -0.6140    8.5080   -2.5630 hc       114 PS      -0.016200
   1819 H1         -2.6540    9.5380   -3.7030 hc       114 PS      -0.005300
   1820 HD1        -2.5740    9.3380   -6.0630 ha       114 PS       0.124600
   1821 HE1        -1.3840    8.7080   -8.0030 ha       114 PS       0.105800
   1822 HZ          1.0460    8.7480   -8.0730 ha       114 PS       0.124800
   1823 HE2         2.3560    9.3780   -5.9830 ha       114 PS       0.105800
   1824 HD2         1.0260    9.8980   -3.8730 ha       114 PS       0.124600
   1825 C2         -2.2340   11.5680   -3.5030 c3       115 PS       0.031000
   1826 C1         -2.7840   12.2380   -4.8030 c3       115 PS       0.000400
   1827 CG         -1.6840   12.5080   -5.8630 ca       115 PS       0.250900
   1828 CD1        -0.4040   13.0380   -5.5930 ca       115 PS      -0.270200
   1829 CE1         0.4860   13.3080   -6.6230 ca       115 PS      -0.050500
   1830 CZ          0.0760   13.1880   -7.9430 ca       115 PS      -0.188800
   1831 CE2        -1.1940   12.6780   -8.2430 ca       115 PS      -0.050500
   1832 CD2        -2.0340   12.3380   -7.1730 ca       115 PS      -0.270200
   1833 H21        -2.9240   11.7280   -2.6630 hc       115 PS      -0.016200
   1834 H22        -1.4140   12.2380   -3.2030 hc       115 PS      -0.016200
   1835 H1         -3.5040   11.5380   -5.2430 hc       115 PS      -0.005300
   1836 HD1        -0.0440   13.1480   -4.5730 ha       115 PS       0.124600
   1837 HE1         1.5060   13.6080   -6.3930 ha       115 PS       0.105800
   1838 HZ          0.7860   13.3080   -8.7530 ha       115 PS       0.124800
   1839 HE2        -1.5340   12.6680   -9.2830 ha       115 PS       0.105800
   1840 HD2        -3.0240   11.9880   -7.4330 ha       115 PS       0.124600
   1841 C2         -3.5840   13.5480   -4.4430 c3       116 PS       0.031000
   1842 C1         -4.5340   14.0480   -5.5830 c3       116 PS       0.000400
   1843 CG         -3.9240   15.3080   -6.3530 ca       116 PS       0.250900
   1844 CD1        -2.5340   15.7380   -6.3730 ca       116 PS      -0.270200
   1845 CE1        -2.1840   16.8580   -7.1930 ca       116 PS      -0.050500
   1846 CZ         -3.1440   17.5480   -7.8630 ca       116 PS      -0.188800
   1847 CE2        -4.4540   17.0980   -7.9130 ca       116 PS      -0.050500
   1848 CD2        -4.8440   15.9780   -7.1730 ca       116 PS      -0.270200
   1849 H21        -4.1040   13.3180   -3.5030 hc       116 PS      -0.016200
   1850 H22        -2.8940   14.3480   -4.1330 hc       116 PS      -0.016200
   1851 H1         -4.5340   13.1780   -6.2530 hc       116 PS      -0.005300
   1852 HD1        -1.6940   15.3380   -5.8130 ha       116 PS       0.124600
   1853 HE1        -1.1640   17.2080   -7.2830 ha       116 PS       0.105800
   1854 HZ         -2.8640   18.4180   -8.4530 ha       116 PS       0.124800
   1855 HE2        -5.1540   17.6780   -8.5130 ha       116 PS       0.105800
   1856 HD2        -5.9040   15.7480   -7.1430 ha       116 PS       0.124600
   1857 C2         -5.9640   14.0680   -4.9030 c3       117 PS       0.031000
   1858 C1         -7.0340   13.2680   -5.7430 c3       117 PS       0.000400
   1859 CG         -6.5640   11.7480   -6.0530 ca       117 PS       0.250900
   1860 CD1        -6.2840   11.3880   -7.4030 ca       117 PS      -0.270200
   1861 CE1        -5.7040   10.1280   -7.6930 ca       117 PS      -0.050500
   1862 CZ         -5.3940    9.2380   -6.7030 ca       117 PS      -0.188800
   1863 CE2        -5.7340    9.5480   -5.3930 ca       117 PS      -0.050500
   1864 CD2        -6.2640   10.7980   -4.9830 ca       117 PS      -0.270200
   1865 H21        -5.9940   13.8180   -3.8330 hc       117 PS      -0.016200
   1866 H22        -6.2640   15.1280   -4.8930 hc       117 PS      -0.016200
   1867 H1         -7.0940   13.8580   -6.6730 hc       117 PS      -0.005300
   1868 HD1        -6.3840   12.1380   -8.1830 ha       117 PS       0.124600
   1869 HE1        -5.4040    9.8280   -8.6930 ha       117 PS       0.105800
   1870 HZ         -4.8240    8.3480   -6.9530 ha       117 PS       0.124800
   1871 HE2        -5.5640    8.7580   -4.6730 ha       117 PS       0.105800
   1872 HD2        -6.5140   11.1280   -3.9730 ha       117 PS       0.124600
   1873 C2         -8.4340   13.3180   -5.0430 c3       118 PS       0.031000
   1874 C1         -9.6440   12.9780   -5.9630 c3       118 PS       0.000400
   1875 CG         -9.7040   11.4880   -6.2530 ca       118 PS       0.250900
   1876 CD1        -9.2940   10.9480   -7.4330 ca       118 PS      -0.270200
   1877 CE1        -9.4440    9.5980   -7.7130 ca       118 PS      -0.050500
   1878 CZ        -10.0940    8.7780   -6.8030 ca       118 PS      -0.188800
   1879 CE2       -10.3940    9.2980   -5.5530 ca       118 PS      -0.050500
   1880 CD2       -10.2940   10.6280   -5.3230 ca       118 PS      -0.270200
   1881 H21        -8.4640   12.6380   -4.1830 hc       118 PS      -0.016200
   1882 H22        -8.5840   14.2580   -4.4930 hc       118 PS      -0.016200
   1883 H1         -9.3840   13.5180   -6.8830 hc       118 PS      -0.005300
   1884 HD1        -8.7840   11.5480   -8.1830 ha       118 PS       0.124600
   1885 HE1        -9.1140    9.2780   -8.7030 ha       118 PS       0.105800
   1886 HZ        -10.3340    7.7480   -7.0530 ha       118 PS       0.124800
   1887 HE2       -10.9340    8.7280   -4.8030 ha       118 PS       0.105800
   1888 HD2       -10.5540   10.9480   -4.3230 ha       118 PS       0.124600
   1889 C2        -11.0140   13.6780   -5.5230 c3       119 PS       0.031000
   1890 C1        -12.0640   13.6780   -6.6230 c3       119 PS       0.000400
   1891 CG        -12.8540   12.3580   -6.4630 ca       119 PS       0.250900
   1892 CD1       -12.6940   11.3280   -7.4430 ca       119 PS      -0.270200
   1893 CE1       -13.3040   10.0880   -7.2630 ca       119 PS      -0.050500
   1894 CZ        -14.2740    9.8580   -6.2430 ca       119 PS      -0.188800
   1895 CE2       -14.5540   10.8880   -5.3630 ca       119 PS      -0.050500
   1896 CD2       -13.8840   12.1680   -5.4730 ca       119 PS      -0.270200
   1897 H21       -11.3440   13.3280   -4.5330 hc       119 PS      -0.016200
   1898 H22       -10.8040   14.7580   -5.5030 hc       119 PS      -0.016200
   1899 H1        -11.5140   13.6280   -7.5630 hc       119 PS      -0.005300
   1900 HD1       -12.1040   11.4780   -8.3330 ha       119 PS       0.124600
   1901 HE1       -13.2240    9.2780   -7.9930 ha       119 PS       0.105800
   1902 HZ        -14.7740    8.8980   -6.1630 ha       119 PS       0.124800
   1903 HE2       -15.3040   10.7180   -4.5930 ha       119 PS       0.105800
   1904 HD2       -14.2240   12.9880   -4.8630 ha       119 PS       0.124600
   1905 C2        -13.0440   14.9380   -6.5830 c3       120 PS       0.031000
   1906 C1        -14.0140   14.8780   -7.7630 c3       120 PS       0.000400
   1907 CG        -15.1740   15.8180   -7.6530 ca       120 PS       0.250900
   1908 CD1       -16.4440   15.2780   -7.3930 ca       120 PS      -0.270200
   1909 CE1       -17.6040   16.0580   -7.4130 ca       120 PS      -0.050500
   1910 CZ        -17.4340   17.4680   -7.7430 ca       120 PS      -0.188800
   1911 CE2       -16.1740   18.0880   -7.9530 ca       120 PS      -0.050500
   1912 CD2       -15.0740   17.2180   -7.9030 ca       120 PS      -0.270200
   1913 H21       -13.4940   15.1380   -5.6030 hc       120 PS      -0.016200
   1914 H22       -12.5340   15.8980   -6.7830 hc       120 PS      -0.016200
   1915 H1        -13.3640   14.9080   -8.6530 hc       120 PS      -0.005300
   1916 HD1       -16.4940   14.2080   -7.1830 ha       120 PS       0.124600
   1917 HE1       -18.5640   15.5580   -7.3930 ha       120 PS       0.105800
   1918 HZ        -18.2740   18.1380   -7.5930 ha       120 PS       0.124800
   1919 HE2       -16.0640   19.1480   -8.1730 ha       120 PS       0.105800
   1920 HD2       -14.1140   17.6880   -8.0630 ha       120 PS       0.124600
   1921 C2          4.7060  -34.5020    6.7870 c3       121 PS       0.031000
   1922 C1          4.1760  -35.9220    6.8470 c3       121 PS       0.000400
   1923 CG          2.6560  -35.9220    6.8470 ca       121 PS       0.250900
   1924 CD1         1.8660  -35.0120    6.1570 ca       121 PS      -0.270200
   1925 CE1         0.4360  -35.0220    6.3170 ca       121 PS      -0.050500
   1926 CZ         -0.1640  -35.9220    7.2170 ca       121 PS      -0.188800
   1927 CE2         0.6160  -36.8620    7.8070 ca       121 PS      -0.050500
   1928 CD2         1.9860  -36.8320    7.6470 ca       121 PS      -0.270200
   1929 H21         4.5060  -34.0120    7.7470 hc       121 PS      -0.016200
   1930 H22         5.8060  -34.5220    6.7270 hc       121 PS      -0.016200
   1931 H1          4.5260  -36.2820    7.8170 hc       121 PS      -0.005300
   1932 HD1         2.3960  -34.3520    5.4770 ha       121 PS       0.124600
   1933 HE1        -0.0240  -34.3020    5.6470 ha       121 PS       0.105800
   1934 HZ         -1.2340  -36.0220    7.3770 ha       121 PS       0.124800
   1935 HE2         0.1260  -37.7020    8.2870 ha       121 PS       0.105800
   1936 HD2         2.5360  -37.6120    8.1770 ha       121 PS       0.124600
   1937 C2          4.8560  -36.8920    5.7670 c3       122 PS       0.031000
   1938 C1          6.3960  -37.0120    5.9970 c3       122 PS       0.000400
   1939 CG          6.7860  -38.5320    6.0670 ca       122 PS       0.250900
   1940 CD1         7.3060  -39.0620    7.2670 ca       122 PS      -0.270200
   1941 CE1         8.0160  -40.3320    7.2170 ca       122 PS      -0.050500
   1942 CZ          8.0560  -41.0720    6.0770 ca       122 PS      -0.188800
   1943 CE2         7.3760  -40.6220    4.9070 ca       122 PS      -0.050500
   1944 CD2         6.8660  -39.3420    4.8770 ca       122 PS      -0.270200
   1945 H21         4.4060  -37.8920    5.8570 hc       122 PS      -0.016200
   1946 H22         4.5960  -36.6420    4.7370 hc       122 PS      -0.016200
   1947 H1          6.8160  -36.7220    6.9770 hc       122 PS      -0.005300
   1948 HD1         7.3560  -38.4820    8.1870 ha       122 PS       0.124600
   1949 HE1         8.4360  -40.7420    8.1370 ha       122 PS       0.105800
   1950 HZ          8.4560  -42.0720    5.9970 ha       122 PS       0.124800
   1951 HE2         7.3760  -41.2420    4.0170 ha       122 PS       0.105800
   1952 HD2         6.4760  -38.9320    3.9570 ha       122 PS       0.124600
   1953 C2          7.2260  -36.1620    4.9470 c3       123 PS       0.031000
   1954 C1          8.5460  -35.5420    5.4270 c3       123 PS       0.000400
   1955 CG          9.5260  -36.4620    6.2770 ca       123 PS       0.250900
   1956 CD1        10.1360  -35.8520    7.3570 ca       123 PS      -0.270200
   1957 CE1        11.0960  -36.6320    8.1370 ca       123 PS      -0.050500
   1958 CZ         11.4860  -37.9120    7.7070 ca       123 PS      -0.188800
   1959 CE2        10.8860  -38.4120    6.5370 ca       123 PS      -0.050500
   1960 CD2         9.8660  -37.7320    5.8670 ca       123 PS      -0.270200
   1961 H21         7.4160  -36.7520    4.0470 hc       123 PS      -0.016200
   1962 H22         6.6560  -35.2320    4.7770 hc       123 PS      -0.016200
   1963 H1          8.3060  -34.7420    6.1370 hc       123 PS      -0.005300
   1964 HD1         9.9560  -34.8020    7.5970 ha       123 PS       0.124600
   1965 HE1        11.5460  -36.2520    9.0570 ha       123 PS       0.105800
   1966 HZ         12.3060  -38.4120    8.2170 ha       123 PS       0.124800
   1967 HE2        11.1360  -39.4220    6.2170 ha       123 PS       0.105800
   1968 HD2         9.4360  -38.2220    4.9970 ha       123 PS       0.124600
   1969 C2          9.3460  -34.8420    4.2870 c3       124 PS       0.031000
   1970 C1         10.2760  -33.6520    4.7070 c3       124 PS       0.000400
   1971 CG          9.4960  -32.4820    5.3670 ca       124 PS       0.250900
   1972 CD1         9.8260  -32.0920    6.6570 ca       124 PS      -0.270200
   1973 CE1         9.1360  -31.1220    7.3070 ca       124 PS      -0.050500
   1974 CZ          7.9660  -30.5520    6.7870 ca       124 PS      -0.188800
   1975 CE2         7.6060  -30.8620    5.4870 ca       124 PS      -0.050500
   1976 CD2         8.3760  -31.8920    4.7870 ca       124 PS      -0.270200
   1977 H21         9.9760  -35.5920    3.7970 hc       124 PS      -0.016200
   1978 H22         8.6460  -34.5220    3.4970 hc       124 PS      -0.016200
   1979 H1         11.0460  -34.0620    5.3670 hc       124 PS      -0.005300
   1980 HD1        10.5260  -32.6820    7.2470 ha       124 PS       0.124600
   1981 HE1         9.4260  -30.9420    8.3470 ha       124 PS       0.105800
   1982 HZ          7.3760  -29.8420    7.3670 ha       124 PS       0.124800
   1983 HE2         6.7260  -30.4520    4.9970 ha       124 PS       0.105800
   1984 HD2         8.0060  -32.2120    3.8170 ha       124 PS       0.124600
   1985 C2         11.1360  -33.1420    3.5070 c3       125 PS       0.031000
   1986 C1         11.9460  -31.7720    3.7170 c3       125 PS       0.000400
   1987 CG         13.3560  -31.8020    3.1870 ca       125 PS       0.250900
   1988 CD1        14.5060  -31.5720    3.9870 ca       125 PS      -0.270200
   1989 CE1        15.7860  -31.7420    3.4970 ca       125 PS      -0.050500
   1990 CZ         15.9460  -32.1120    2.1170 ca       125 PS      -0.188800
   1991 CE2        14.8460  -32.1220    1.2970 ca       125 PS      -0.050500
   1992 CD2        13.5260  -32.0320    1.8070 ca       125 PS      -0.270200
   1993 H21        11.7560  -33.9920    3.1970 hc       125 PS      -0.016200
   1994 H22        10.4460  -32.9820    2.6770 hc       125 PS      -0.016200
   1995 H1         12.0760  -31.6520    4.8070 hc       125 PS      -0.005300
   1996 HD1        14.4260  -31.3920    5.0570 ha       125 PS       0.124600
   1997 HE1        16.6160  -31.5220    4.1670 ha       125 PS       0.105800
   1998 HZ         16.9160  -32.0720    1.6270 ha       125 PS       0.124800
   1999 HE2        14.8860  -32.1820    0.2170 ha       125 PS       0.105800
   2000 HD2        12.6460  -32.0920    1.1770 ha       125 PS       0.124600
   2001 C2         11.2560  -30.5620    3.0870 c3       126 PS       0.031000
   2002 C1         11.0460  -29.4020    4.1170 c3       126 PS       0.000400
   2003 CG         12.3660  -28.8920    4.7770 ca       126 PS       0.250900
   2004 CD1        12.4560  -29.0120    6.1570 ca       126 PS      -0.270200
   2005 CE1        13.4960  -28.4020    6.8270 ca       126 PS      -0.050500
   2006 CZ         14.5560  -27.7420    6.1470 ca       126 PS      -0.188800
   2007 CE2        14.4860  -27.6220    4.7570 ca       126 PS      -0.050500
   2008 CD2        13.3760  -28.2120    4.0570 ca       126 PS      -0.270200
   2009 H21        11.7060  -30.2120    2.1570 hc       126 PS      -0.016200
   2010 H22        10.2560  -30.8520    2.7370 hc       126 PS      -0.016200
   2011 H1         10.2960  -29.7320    4.8470 hc       126 PS      -0.005300
   2012 HD1        11.7160  -29.5720    6.7070 ha       126 PS       0.124600
   2013 HE1        13.5760  -28.5620    7.8970 ha       126 PS       0.105800
   2014 HZ         15.3960  -27.2820    6.6470 ha       126 PS       0.124800
   2015 HE2        15.3360  -27.1420    4.2870 ha       126 PS       0.105800
   2016 HD2        13.1960  -27.8920    3.0270 ha       126 PS       0.124600
   2017 C2         10.2460  -28.2520    3.4870 c3       127 PS       0.031000
   2018 C1          9.5460  -27.2420    4.5170 c3       127 PS       0.000400
   2019 CG         10.5160  -26.4920    5.4570 ca       127 PS       0.250900
   2020 CD1        11.5960  -25.8220    4.9270 ca       127 PS      -0.270200
   2021 CE1        12.5060  -25.2020    5.7870 ca       127 PS      -0.050500
   2022 CZ         12.3660  -25.3120    7.2270 ca       127 PS      -0.188800
   2023 CE2        11.2660  -25.9820    7.6770 ca       127 PS      -0.050500
   2024 CD2        10.3860  -26.6820    6.8370 ca       127 PS      -0.270200
   2025 H21        10.9160  -27.6620    2.8470 hc       127 PS      -0.016200
   2026 H22         9.3560  -28.6120    2.9570 hc       127 PS      -0.016200
   2027 H1          8.8260  -27.8520    5.0770 hc       127 PS      -0.005300
   2028 HD1        11.7560  -25.7120    3.8570 ha       127 PS       0.124600
   2029 HE1        13.3160  -24.6420    5.3470 ha       127 PS       0.105800
   2030 HZ         13.0560  -24.7620    7.8670 ha       127 PS       0.124800
   2031 HE2        11.0760  -26.1620    8.7270 ha       127 PS       0.105800
   2032 HD2         9.5860  -27.2920    7.2470 ha       127 PS       0.124600
   2033 C2          8.6360  -26.1720    3.7970 c3       128 PS       0.031000
   2034 C1          7.6760  -25.4520    4.7770 c3       128 PS       0.000400
   2035 CG          6.6060  -26.4520    5.3770 ca       128 PS       0.250900
   2036 CD1         6.2560  -26.3120    6.7170 ca       128 PS      -0.270200
   2037 CE1         5.2060  -27.1220    7.2470 ca       128 PS      -0.050500
   2038 CZ          4.4760  -28.0220    6.4570 ca       128 PS      -0.188800
   2039 CE2         4.8460  -28.2220    5.1670 ca       128 PS      -0.050500
   2040 CD2         5.8860  -27.3820    4.6070 ca       128 PS      -0.270200
   2041 H21         9.3460  -25.4520    3.3870 hc       128 PS      -0.016200
   2042 H22         8.1060  -26.6020    2.9270 hc       128 PS      -0.016200
   2043 H1          8.2360  -25.0220    5.6170 hc       128 PS      -0.005300
   2044 HD1         6.7560  -25.6320    7.3970 ha       128 PS       0.124600
   2045 HE1         4.8260  -26.8620    8.2270 ha       128 PS       0.105800
   2046 HZ          3.6560  -28.6120    6.8570 ha       128 PS       0.124800
   2047 HE2         4.3260  -29.0120    4.6370 ha       128 PS       0.105800
   2048 HD2         6.0160  -27.4020    3.5370 ha       128 PS       0.124600
   2049 C2          7.0260  -24.2220    3.9970 c3       129 PS       0.031000
   2050 C1          6.8660  -22.9720    4.9470 c3       129 PS       0.000400
   2051 CG          8.0760  -22.3320    5.5870 ca       129 PS       0.250900
   2052 CD1         9.3760  -22.5120    5.1170 ca       129 PS      -0.270200
   2053 CE1        10.4660  -21.9520    5.8170 ca       129 PS      -0.050500
   2054 CZ         10.2460  -21.0720    6.8370 ca       129 PS      -0.188800
   2055 CE2         8.9360  -20.8620    7.4370 ca       129 PS      -0.050500
   2056 CD2         7.8760  -21.5520    6.8170 ca       129 PS      -0.270200
   2057 H21         7.5860  -23.9120    3.1070 hc       129 PS      -0.016200
   2058 H22         6.0560  -24.4320    3.5470 hc       129 PS      -0.016200
   2059 H1          6.3160  -23.4420    5.7770 hc       129 PS      -0.005300
   2060 HD1         9.5760  -23.1420    4.2570 ha       129 PS       0.124600
   2061 HE1        11.4660  -22.0420    5.3970 ha       129 PS       0.105800
   2062 HZ         11.0760  -20.5520    7.3270 ha       129 PS       0.124800
   2063 HE2         8.7760  -20.2820    8.3370 ha       129 PS       0.105800
   2064 HD2         6.8460  -21.4320    7.1270 ha       129 PS       0.124600
   2065 C2          5.9460  -21.9420    4.3570 c3       130 PS       0.031000
   2066 C1          4.4360  -22.3920    4.2370 c3       130 PS       0.000400
   2067 CG          3.9060  -22.9920    5.4970 ca       130 PS       0.250900
   2068 CD1         3.7060  -24.3520    5.5570 ca       130 PS      -0.270200
   2069 CE1         3.0860  -24.9320    6.6870 ca       130 PS      -0.050500
   2070 CZ          2.8860  -24.2420    7.8470 ca       130 PS      -0.188800
   2071 CE2         3.3760  -22.8720    7.9370 ca       130 PS      -0.050500
   2072 CD2         3.6960  -22.2520    6.6870 ca       130 PS      -0.270200
   2073 H21         5.9660  -21.0520    4.9970 hc       130 PS      -0.016200
   2074 H22         6.3060  -21.6520    3.3570 hc       130 PS      -0.016200
   2075 H1          4.3760  -23.0820    3.3870 hc       130 PS      -0.005300
   2076 HD1         3.9860  -24.9920    4.7270 ha       130 PS       0.124600
   2077 HE1         2.8360  -25.9920    6.6170 ha       130 PS       0.105800
   2078 HZ          2.6260  -24.8120    8.7370 ha       130 PS       0.124800
   2079 HE2         3.3960  -22.2920    8.8570 ha       130 PS       0.105800
   2080 HD2         3.9860  -21.2120    6.6570 ha       130 PS       0.124600
   2081 C2          3.5660  -21.2820    3.7170 c3       131 PS       0.031000
   2082 C1          2.1760  -21.7320    3.2370 c3       131 PS       0.000400
   2083 CG          2.1860  -22.8220    2.0470 ca       131 PS       0.250900
   2084 CD1         1.0360  -23.5920    2.1270 ca       131 PS      -0.270200
   2085 CE1         0.9760  -24.6620    1.2370 ca       131 PS      -0.050500
   2086 CZ          1.7460  -24.7520    0.0670 ca       131 PS      -0.188800
   2087 CE2         2.7660  -23.8120   -0.0930 ca       131 PS      -0.050500
   2088 CD2         2.9960  -22.8720    0.8870 ca       131 PS      -0.270200
   2089 H21         3.4460  -20.5820    4.5470 hc       131 PS      -0.016200
   2090 H22         4.0760  -20.8020    2.8770 hc       131 PS      -0.016200
   2091 H1          1.7160  -22.2720    4.0670 hc       131 PS      -0.005300
   2092 HD1         0.3960  -23.5620    3.0070 ha       131 PS       0.124600
   2093 HE1         0.0960  -25.3020    1.2970 ha       131 PS       0.105800
   2094 HZ          1.5860  -25.4520   -0.7430 ha       131 PS       0.124800
   2095 HE2         3.4560  -23.8120   -0.9230 ha       131 PS       0.105800
   2096 HD2         3.8760  -22.2420    0.7870 ha       131 PS       0.124600
   2097 C2          1.3160  -20.4820    2.7970 c3       132 PS       0.031000
   2098 C1          0.7060  -19.6420    3.9770 c3       132 PS       0.000400
   2099 CG          0.0660  -20.5120    5.0970 ca       132 PS       0.250900
   2100 CD1        -1.1740  -21.0920    5.0070 ca       132 PS      -0.270200
   2101 CE1        -1.8740  -21.5720    6.1470 ca       132 PS      -0.050500
   2102 CZ         -1.2640  -21.3820    7.3570 ca       132 PS      -0.188800
   2103 CE2         0.0060  -20.7520    7.5170 ca       132 PS      -0.050500
   2104 CD2         0.6760  -20.4820    6.3470 ca       132 PS      -0.270200
   2105 H21         1.9760  -19.8020    2.2470 hc       132 PS      -0.016200
   2106 H22         0.5260  -20.8220    2.1070 hc       132 PS      -0.016200
   2107 H1          1.6360  -19.2220    4.3670 hc       132 PS      -0.005300
   2108 HD1        -1.7640  -20.9520    4.1070 ha       132 PS       0.124600
   2109 HE1        -2.9340  -21.8220    6.1370 ha       132 PS       0.105800
   2110 HZ         -1.8140  -21.7520    8.2170 ha       132 PS       0.124800
   2111 HE2         0.5360  -20.6320    8.4570 ha       132 PS       0.105800
   2112 HD2         1.6460  -20.0120    6.3870 ha       132 PS       0.124600
   2113 C2         -0.3840  -18.5720    3.5770 c3       133 PS       0.031000
   2114 C1         -0.8840  -17.7320    4.8070 c3       133 PS       0.000400
   2115 CG          0.3260  -17.1020    5.5270 ca       133 PS       0.250900
   2116 CD1         0.5160  -17.2820    6.8970 ca       133 PS      -0.270200
   2117 CE1         1.7460  -16.8120    7.5370 ca       133 PS      -0.050500
   2118 CZ          2.6160  -15.9720    6.8370 ca       133 PS      -0.188800
   2119 CE2         2.4160  -15.8120    5.4270 ca       133 PS      -0.050500
   2120 CD2         1.2360  -16.3220    4.7670 ca       133 PS      -0.270200
   2121 H21         0.0760  -17.8820    2.8670 hc       133 PS      -0.016200
   2122 H22        -1.1340  -19.0920    2.9770 hc       133 PS      -0.016200
   2123 H1         -1.4240  -18.2920    5.5770 hc       133 PS      -0.005300
   2124 HD1        -0.2040  -17.9520    7.3470 ha       133 PS       0.124600
   2125 HE1         1.7760  -16.9720    8.6170 ha       133 PS       0.105800
   2126 HZ          3.4860  -15.4920    7.2770 ha       133 PS       0.124800
   2127 HE2         3.0260  -15.1120    4.8570 ha       133 PS       0.105800
   2128 HD2         1.0860  -16.0620    3.7270 ha       133 PS       0.124600
   2129 C2         -2.0340  -16.6520    4.4970 c3       134 PS       0.031000
   2130 C1         -3.1540  -16.3920    5.6270 c3       134 PS       0.000400
   2131 CG         -3.8140  -17.7120    6.0970 ca       134 PS       0.250900
   2132 CD1        -3.9840  -18.8420    5.2370 ca       134 PS      -0.270200
   2133 CE1        -4.5340  -20.0620    5.6370 ca       134 PS      -0.050500
   2134 CZ         -4.9240  -20.3220    6.9570 ca       134 PS      -0.188800
   2135 CE2        -4.8240  -19.2220    7.8170 ca       134 PS      -0.050500
   2136 CD2        -4.2940  -17.9620    7.4070 ca       134 PS      -0.270200
   2137 H21        -1.4940  -15.8220    4.0370 hc       134 PS      -0.016200
   2138 H22        -2.6340  -16.9620    3.6370 hc       134 PS      -0.016200
   2139 H1         -2.6940  -16.0220    6.5470 hc       134 PS      -0.005300
   2140 HD1        -3.8240  -18.6820    4.1770 ha       134 PS       0.124600
   2141 HE1        -4.6740  -20.8120    4.8570 ha       134 PS       0.105800
   2142 HZ         -5.3340  -21.2820    7.2570 ha       134 PS       0.124800
   2143 HE2        -4.9340  -19.4320    8.8770 ha       134 PS       0.105800
   2144 HD2        -4.1240  -17.1520    8.1070 ha       134 PS       0.124600
   2145 C2         -4.2840  -15.3620    5.2170 c3       135 PS       0.031000
   2146 C1         -3.8040  -14.0420    4.6170 c3       135 PS       0.000400
   2147 CG         -2.9040  -13.2520    5.6070 ca       135 PS       0.250900
   2148 CD1        -2.8940  -13.4220    6.9470 ca       135 PS      -0.270200
   2149 CE1        -2.0640  -12.6320    7.8070 ca       135 PS      -0.050500
   2150 CZ         -1.3840  -11.5620    7.1870 ca       135 PS      -0.188800
   2151 CE2        -1.4240  -11.3620    5.8170 ca       135 PS      -0.050500
   2152 CD2        -2.1640  -12.2120    4.9670 ca       135 PS      -0.270200
   2153 H21        -4.8340  -15.9220    4.4570 hc       135 PS      -0.016200
   2154 H22        -5.0140  -15.1420    6.0070 hc       135 PS      -0.016200
   2155 H1         -3.1140  -14.2320    3.7770 hc       135 PS      -0.005300
   2156 HD1        -3.6440  -14.0420    7.4370 ha       135 PS       0.124600
   2157 HE1        -2.0540  -12.7620    8.8870 ha       135 PS       0.105800
   2158 HZ         -0.8040  -10.9320    7.8470 ha       135 PS       0.124800
   2159 HE2        -0.8940  -10.5320    5.3470 ha       135 PS       0.105800
   2160 HD2        -2.1640  -12.1420    3.8770 ha       135 PS       0.124600
   2161 C2         -4.9840  -13.2220    3.9570 c3       136 PS       0.031000
   2162 C1         -5.9940  -12.5520    4.9170 c3       136 PS       0.000400
   2163 CG         -6.7740  -13.4620    5.7570 ca       136 PS       0.250900
   2164 CD1        -6.9240  -13.1820    7.1170 ca       136 PS      -0.270200
   2165 CE1        -7.7340  -14.0320    7.8770 ca       136 PS      -0.050500
   2166 CZ         -8.3540  -15.1420    7.2670 ca       136 PS      -0.188800
   2167 CE2        -8.3040  -15.3220    5.9170 ca       136 PS      -0.050500
   2168 CD2        -7.4640  -14.5320    5.1470 ca       136 PS      -0.270200
   2169 H21        -4.4840  -12.4420    3.3670 hc       136 PS      -0.016200
   2170 H22        -5.4940  -13.8820    3.2470 hc       136 PS      -0.016200
   2171 H1         -5.4140  -11.8620    5.5370 hc       136 PS      -0.005300
   2172 HD1        -6.3940  -12.4020    7.6470 ha       136 PS       0.124600
   2173 HE1        -7.8040  -13.8120    8.9370 ha       136 PS       0.105800
   2174 HZ         -8.9040  -15.8420    7.8970 ha       136 PS       0.124800
   2175 HE2        -8.8340  -16.1720    5.5070 ha       136 PS       0.105800
   2176 HD2        -7.2440  -14.9620    4.1670 ha       136 PS       0.124600
   2177 C2         -6.9740  -11.5820    4.1970 c3       137 PS       0.031000
   2178 C1         -7.6240  -10.4120    5.0770 c3       137 PS       0.000400
   2179 CG         -6.4940   -9.5120    5.6170 ca       137 PS       0.250900
   2180 CD1        -6.3040   -9.3620    6.9770 ca       137 PS      -0.270200
   2181 CE1        -5.2740   -8.6120    7.4870 ca       137 PS      -0.050500
   2182 CZ         -4.3440   -8.0520    6.5870 ca       137 PS      -0.188800
   2183 CE2        -4.5240   -8.1920    5.1770 ca       137 PS      -0.050500
   2184 CD2        -5.6040   -8.9020    4.6770 ca       137 PS      -0.270200
   2185 H21        -6.4140  -11.1320    3.3670 hc       137 PS      -0.016200
   2186 H22        -7.7840  -12.2220    3.8170 hc       137 PS      -0.016200
   2187 H1         -8.0140  -10.9920    5.9170 hc       137 PS      -0.005300
   2188 HD1        -7.0340   -9.8320    7.6370 ha       137 PS       0.124600
   2189 HE1        -5.1240   -8.5220    8.5570 ha       137 PS       0.105800
   2190 HZ         -3.5340   -7.5020    7.0570 ha       137 PS       0.124800
   2191 HE2        -3.6940   -7.7520    4.6370 ha       137 PS       0.105800
   2192 HD2        -5.6840   -9.1320    3.6170 ha       137 PS       0.124600
   2193 C2         -8.6740   -9.6020    4.1770 c3       138 PS       0.031000
   2194 C1         -9.7140   -8.7520    5.0470 c3       138 PS       0.000400
   2195 CG        -10.5040   -9.7220    5.9170 ca       138 PS       0.250900
   2196 CD1       -10.3040   -9.7220    7.3070 ca       138 PS      -0.270200
   2197 CE1       -11.0440  -10.6320    8.0870 ca       138 PS      -0.050500
   2198 CZ        -11.8740  -11.5820    7.5070 ca       138 PS      -0.188800
   2199 CE2       -12.0740  -11.5920    6.1770 ca       138 PS      -0.050500
   2200 CD2       -11.4140  -10.6720    5.3270 ca       138 PS      -0.270200
   2201 H21        -8.1240   -8.9420    3.4870 hc       138 PS      -0.016200
   2202 H22        -9.2340  -10.3420    3.5970 hc       138 PS      -0.016200
   2203 H1         -9.1740   -8.1420    5.7770 hc       138 PS      -0.005300
   2204 HD1        -9.5940   -9.0020    7.7070 ha       138 PS       0.124600
   2205 HE1       -10.8740  -10.5620    9.1670 ha       138 PS       0.105800
   2206 HZ        -12.3840  -12.3320    8.0970 ha       138 PS       0.124800
   2207 HE2       -12.8740  -12.2320    5.8170 ha       138 PS       0.105800
   2208 HD2       -11.5640  -10.6320    4.2570 ha       138 PS       0.124600
   2209 C2        -10.4740   -7.8820    4.0170 c3       139 PS       0.031000
   2210 C1        -11.8040   -7.0620    4.5170 c3       139 PS       0.000400
   2211 CG        -13.0340   -7.7720    3.9970 ca       139 PS       0.250900
   2212 CD1       -13.9840   -8.2720    4.8970 ca       139 PS      -0.270200
   2213 CE1       -15.0940   -8.9820    4.3770 ca       139 PS      -0.050500
   2214 CZ        -15.2340   -9.3320    3.0270 ca       139 PS      -0.188800
   2215 CE2       -14.1940   -8.9420    2.1370 ca       139 PS      -0.050500
   2216 CD2       -13.2040   -8.1020    2.6370 ca       139 PS      -0.270200
   2217 H21        -9.7940   -7.2420    3.4470 hc       139 PS      -0.016200
   2218 H22       -10.7740   -8.6220    3.2670 hc       139 PS      -0.016200
   2219 H1        -11.8340   -7.0720    5.6070 hc       139 PS      -0.005300
   2220 HD1       -13.9140   -8.0720    5.9670 ha       139 PS       0.124600
   2221 HE1       -15.7740   -9.5420    5.0170 ha       139 PS       0.105800
   2222 HZ        -16.0840   -9.8820    2.6270 ha       139 PS       0.124800
   2223 HE2       -14.1640   -9.2820    1.1070 ha       139 PS       0.105800
   2224 HD2       -12.4440   -7.7320    1.9570 ha       139 PS       0.124600
   2225 C2        -11.8240   -5.6620    3.9170 c3       140 PS       0.031000
   2226 C1        -11.3440   -4.4720    4.8570 c3       140 PS       0.000400
   2227 CG        -10.0740   -4.8520    5.6970 ca       140 PS       0.250900
   2228 CD1        -8.8740   -5.3020    5.0670 ca       140 PS      -0.270200
   2229 CE1        -7.6840   -5.4820    5.7970 ca       140 PS      -0.050500
   2230 CZ         -7.6740   -5.3420    7.1970 ca       140 PS      -0.188800
   2231 CE2        -8.8440   -4.8520    7.8070 ca       140 PS      -0.050500
   2232 CD2        -9.9940   -4.6620    7.0970 ca       140 PS      -0.270200
   2233 H21       -11.1140   -5.7620    3.0770 hc       140 PS      -0.016200
   2234 H22       -12.7940   -5.3020    3.5670 hc       140 PS      -0.016200
   2235 H1        -12.1340   -4.0920    5.5170 hc       140 PS      -0.005300
   2236 HD1        -8.8040   -5.2620    3.9870 ha       140 PS       0.124600
   2237 HE1        -6.7940   -5.8420    5.2670 ha       140 PS       0.105800
   2238 HZ         -6.8740   -5.6320    7.8670 ha       140 PS       0.124800
   2239 HE2        -8.9040   -4.7120    8.8870 ha       140 PS       0.105800
   2240 HD2       -10.8840   -4.2620    7.5770 ha       140 PS       0.124600
   2241 C2        -11.0640   -3.2020    3.9970 c3       141 PS       0.031000
   2242 C1        -10.6340   -1.8420    4.6570 c3       141 PS       0.000400
   2243 CG        -11.8040   -1.2120    5.4670 ca       141 PS       0.250900
   2244 CD1       -11.8340   -1.3720    6.8570 ca       141 PS      -0.270200
   2245 CE1       -12.8940   -0.8920    7.6070 ca       141 PS      -0.050500
   2246 CZ        -13.9340   -0.1620    6.9970 ca       141 PS      -0.188800
   2247 CE2       -13.8240    0.1980    5.6370 ca       141 PS      -0.050500
   2248 CD2       -12.7640   -0.3820    4.8670 ca       141 PS      -0.270200
   2249 H21       -10.3840   -3.3120    3.1370 hc       141 PS      -0.016200
   2250 H22       -12.0340   -2.9520    3.5470 hc       141 PS      -0.016200
   2251 H1         -9.8540   -2.1120    5.3870 hc       141 PS      -0.005300
   2252 HD1       -11.0740   -1.9820    7.3470 ha       141 PS       0.124600
   2253 HE1       -12.9740   -1.2020    8.6470 ha       141 PS       0.105800
   2254 HZ        -14.7540    0.2980    7.5470 ha       141 PS       0.124800
   2255 HE2       -14.6040    0.8080    5.1970 ha       141 PS       0.105800
   2256 HD2       -12.7940   -0.2620    3.7870 ha       141 PS       0.124600
   2257 C2        -10.0740   -0.7920    3.5670 c3       142 PS       0.031000
   2258 C1         -9.9040    0.7180    4.1070 c3       142 PS       0.000400
   2259 CG         -9.1240    0.6780    5.4170 ca       142 PS       0.250900
   2260 CD1        -9.5640    1.5580    6.4170 ca       142 PS      -0.270200
   2261 CE1        -8.8340    1.6080    7.6570 ca       142 PS      -0.050500
   2262 CZ         -7.5940    0.9080    7.8570 ca       142 PS      -0.188800
   2263 CE2        -7.1640    0.0180    6.8070 ca       142 PS      -0.050500
   2264 CD2        -7.9640   -0.1020    5.6470 ca       142 PS      -0.270200
   2265 H21        -9.1640   -1.1620    3.0770 hc       142 PS      -0.016200
   2266 H22       -10.8340   -0.7720    2.7770 hc       142 PS      -0.016200
   2267 H1        -10.8340    1.2880    4.2270 hc       142 PS      -0.005300
   2268 HD1       -10.4540    2.1680    6.2570 ha       142 PS       0.124600
   2269 HE1        -9.1340    2.3980    8.3470 ha       142 PS       0.105800
   2270 HZ         -7.0940    1.0580    8.8070 ha       142 PS       0.124800
   2271 HE2        -6.2840   -0.6020    6.9870 ha       142 PS       0.105800
   2272 HD2        -7.5240   -0.6920    4.8470 ha       142 PS       0.124600
   2273 C2         -8.9640    1.4980    3.1470 c3       143 PS       0.031000
   2274 C1         -9.4040    1.8080    1.7170 c3       143 PS       0.000400
   2275 CG         -8.2040    2.1880    0.8270 ca       143 PS       0.250900
   2276 CD1        -8.1640    1.6580   -0.5130 ca       143 PS      -0.270200
   2277 CE1        -7.2040    2.1380   -1.4430 ca       143 PS      -0.050500
   2278 CZ         -6.2340    3.0280   -1.0630 ca       143 PS      -0.188800
   2279 CE2        -6.2040    3.3880    0.3370 ca       143 PS      -0.050500
   2280 CD2        -7.1740    2.9680    1.2070 ca       143 PS      -0.270200
   2281 H21        -8.7840    2.4680    3.6270 hc       143 PS      -0.016200
   2282 H22        -8.0440    0.8980    3.1170 hc       143 PS      -0.016200
   2283 H1         -9.8740    0.9180    1.3070 hc       143 PS      -0.005300
   2284 HD1        -8.8840    0.9580   -0.9430 ha       143 PS       0.124600
   2285 HE1        -7.2240    1.8080   -2.4730 ha       143 PS       0.105800
   2286 HZ         -5.5740    3.4080   -1.8430 ha       143 PS       0.124800
   2287 HE2        -5.4040    4.0480    0.6470 ha       143 PS       0.105800
   2288 HD2        -7.0040    3.3780    2.1970 ha       143 PS       0.124600
   2289 C2        -10.5340    2.9580    1.7870 c3       144 PS       0.031000
   2290 C1        -10.4340    4.3280    1.0770 c3       144 PS       0.000400
   2291 CG         -9.2240    5.2380    1.6670 ca       144 PS       0.250900
   2292 CD1        -8.8540    5.3180    2.9970 ca       144 PS      -0.270200
   2293 CE1        -7.7240    6.1380    3.3570 ca       144 PS      -0.050500
   2294 CZ         -7.0540    6.8880    2.3770 ca       144 PS      -0.188800
   2295 CE2        -7.4640    6.8080    1.0670 ca       144 PS      -0.050500
   2296 CD2        -8.4640    5.9180    0.6970 ca       144 PS      -0.270200
   2297 H21       -11.5240    2.5480    1.5870 hc       144 PS      -0.016200
   2298 H22       -10.6140    3.2180    2.8470 hc       144 PS      -0.016200
   2299 H1        -10.3140    4.1680   -0.0030 hc       144 PS      -0.005300
   2300 HD1        -9.4540    4.7980    3.7370 ha       144 PS       0.124600
   2301 HE1        -7.3040    6.1780    4.3570 ha       144 PS       0.105800
   2302 HZ         -6.2540    7.5780    2.6170 ha       144 PS       0.124800
   2303 HE2        -6.9040    7.4080    0.3570 ha       144 PS       0.105800
   2304 HD2        -8.7440    5.7480   -0.3430 ha       144 PS       0.124600
   2305 C2        -11.8040    5.0680    1.3470 c3       145 PS       0.031000
   2306 C1        -12.4640    6.0080    0.3170 c3       145 PS       0.000400
   2307 CG        -11.4740    6.6980   -0.6330 ca       145 PS       0.250900
   2308 CD1       -11.1940    6.1380   -1.8930 ca       145 PS      -0.270200
   2309 CE1       -10.2440    6.6480   -2.7930 ca       145 PS      -0.050500
   2310 CZ         -9.6240    7.8180   -2.3830 ca       145 PS      -0.188800
   2311 CE2        -9.8040    8.3780   -1.1030 ca       145 PS      -0.050500
   2312 CD2       -10.7140    7.7780   -0.1930 ca       145 PS      -0.270200
   2313 H21       -12.5540    4.3880    1.7770 hc       145 PS      -0.016200
   2314 H22       -11.5940    5.6880    2.2270 hc       145 PS      -0.016200
   2315 H1        -13.1640    5.4280   -0.3030 hc       145 PS      -0.005300
   2316 HD1       -11.6640    5.1980   -2.1430 ha       145 PS       0.124600
   2317 HE1        -9.9540    6.1380   -3.7130 ha       145 PS       0.105800
   2318 HZ         -8.9540    8.2780   -3.1030 ha       145 PS       0.124800
   2319 HE2        -9.3240    9.2880   -0.7630 ha       145 PS       0.105800
   2320 HD2       -10.8240    8.1580    0.8170 ha       145 PS       0.124600
   2321 C2        -13.3140    6.9480    1.0770 c3       146 PS       0.031000
   2322 C1        -14.3140    7.7880    0.2170 c3       146 PS       0.000400
   2323 CG        -13.6740    9.0180   -0.5230 ca       146 PS       0.250900
   2324 CD1       -13.6640    8.8480   -1.8830 ca       146 PS      -0.270200
   2325 CE1       -12.9240    9.7380   -2.6530 ca       146 PS      -0.050500
   2326 CZ        -12.4940   10.9480   -2.1030 ca       146 PS      -0.188800
   2327 CE2       -12.6040   11.1880   -0.7430 ca       146 PS      -0.050500
   2328 CD2       -13.1440   10.1780    0.0870 ca       146 PS      -0.270200
   2329 H21       -14.0540    6.4580    1.7270 hc       146 PS      -0.016200
   2330 H22       -12.6640    7.5180    1.7470 hc       146 PS      -0.016200
   2331 H1        -14.7540    7.2080   -0.6030 hc       146 PS      -0.005300
   2332 HD1       -13.9840    7.9380   -2.3830 ha       146 PS       0.124600
   2333 HE1       -12.9140    9.5380   -3.7230 ha       146 PS       0.105800
   2334 HZ        -12.1040   11.7380   -2.7330 ha       146 PS       0.124800
   2335 HE2       -12.2140   12.0980   -0.3030 ha       146 PS       0.105800
   2336 HD2       -13.2140   10.4180    1.1370 ha       146 PS       0.124600
   2337 C2        -15.4640    8.2280    1.0970 c3       147 PS       0.031000
   2338 C1        -16.3740    9.2680    0.3970 c3       147 PS       0.000400
   2339 CG        -17.0240    8.6980   -0.8030 ca       147 PS       0.250900
   2340 CD1       -16.7040    9.2180   -2.0930 ca       147 PS      -0.270200
   2341 CE1       -17.1040    8.5080   -3.2330 ca       147 PS      -0.050500
   2342 CZ        -17.7440    7.2680   -3.1630 ca       147 PS      -0.188800
   2343 CE2       -17.9640    6.7280   -1.8630 ca       147 PS      -0.050500
   2344 CD2       -17.6140    7.4380   -0.6730 ca       147 PS      -0.270200
   2345 H21       -16.1240    7.3980    1.4070 hc       147 PS      -0.016200
   2346 H22       -15.0740    8.7480    1.9870 hc       147 PS      -0.016200
   2347 H1        -15.8540   10.1980    0.1270 hc       147 PS      -0.005300
   2348 HD1       -16.3140   10.2180   -2.2530 ha       147 PS       0.124600
   2349 HE1       -16.9440    8.9680   -4.2130 ha       147 PS       0.105800
   2350 HZ        -18.1640    6.7480   -4.0130 ha       147 PS       0.124800
   2351 HE2       -18.5340    5.8180   -1.6930 ha       147 PS       0.105800
   2352 HD2       -17.9740    7.1380    0.3070 ha       147 PS       0.124600
   2353 C2        -17.5440    9.6380    1.4170 c3       148 PS       0.031000
   2354 C1        -17.9140   11.1180    1.5070 c3       148 PS       0.000400
   2355 CG        -18.4740   11.6580    0.2170 ca       148 PS       0.250900
   2356 CD1       -17.8040   12.7380   -0.4030 ca       148 PS      -0.270200
   2357 CE1       -18.2740   13.2180   -1.6530 ca       148 PS      -0.050500
   2358 CZ        -19.4640   12.7280   -2.1730 ca       148 PS      -0.188800
   2359 CE2       -20.0440   11.5480   -1.6530 ca       148 PS      -0.050500
   2360 CD2       -19.5840   11.0580   -0.4230 ca       148 PS      -0.270200
   2361 H21       -18.4540    9.0780    1.1570 hc       148 PS      -0.016200
   2362 H22       -17.2640    9.3680    2.4370 hc       148 PS      -0.016200
   2363 H1        -17.0440   11.7180    1.8070 hc       148 PS      -0.005300
   2364 HD1       -16.9040   13.1380    0.0470 ha       148 PS       0.124600
   2365 HE1       -17.8040   14.1180   -2.0330 ha       148 PS       0.105800
   2366 HZ        -19.8940   13.2280   -3.0330 ha       148 PS       0.124800
   2367 HE2       -20.9840   11.1680   -2.0430 ha       148 PS       0.105800
   2368 HD2       -20.0840   10.1780   -0.0330 ha       148 PS       0.124600
   2369 C2        -18.7940   11.2980    2.7870 c3       149 PS       0.031000
   2370 C1        -19.1640   12.7280    3.1070 c3       149 PS       0.000400
   2371 CG        -20.3540   12.7280    4.0370 ca       149 PS       0.250900
   2372 CD1       -20.3840   11.9680    5.2370 ca       149 PS      -0.270200
   2373 CE1       -21.4740   12.0180    6.0670 ca       149 PS      -0.050500
   2374 CZ        -22.5540   12.7980    5.6670 ca       149 PS      -0.188800
   2375 CE2       -22.5640   13.5380    4.4570 ca       149 PS      -0.050500
   2376 CD2       -21.4540   13.4280    3.5770 ca       149 PS      -0.270200
   2377 H21       -19.7640   10.8080    2.6570 hc       149 PS      -0.016200
   2378 H22       -18.4640   10.7780    3.6970 hc       149 PS      -0.016200
   2379 H1        -19.2740   13.2280    2.1370 hc       149 PS      -0.005300
   2380 HD1       -19.4940   11.4080    5.5270 ha       149 PS       0.124600
   2381 HE1       -21.4640   11.3880    6.9470 ha       149 PS       0.105800
   2382 HZ        -23.4840   12.7980    6.2370 ha       149 PS       0.124800
   2383 HE2       -23.4740   14.0980    4.2370 ha       149 PS       0.105800
   2384 HD2       -21.5440   13.8680    2.5870 ha       149 PS       0.124600
   2385 C2        -17.9740   13.5180    3.8470 c3       150 PS       0.031000
   2386 C1        -16.9740   12.5780    4.5170 c3       150 PS       0.000400
   2387 CG        -15.5540   13.0280    4.5270 ca       150 PS       0.250900
   2388 CD1       -14.9140   13.2080    5.7870 ca       150 PS      -0.270200
   2389 CE1       -13.5540   13.6680    5.8470 ca       150 PS      -0.050500
   2390 CZ        -12.8140   13.8880    4.6470 ca       150 PS      -0.188800
   2391 CE2       -13.4440   13.6680    3.4170 ca       150 PS      -0.050500
   2392 CD2       -14.7640   13.2080    3.3670 ca       150 PS      -0.270200
   2393 H21       -17.4240   14.1080    3.1070 hc       150 PS      -0.016200
   2394 H22       -18.4440   14.1280    4.6270 hc       150 PS      -0.016200
   2395 H1        -17.4540   12.3380    5.4770 hc       150 PS      -0.005300
   2396 HD1       -15.4440   13.0080    6.7170 ha       150 PS       0.124600
   2397 HE1       -13.0540   13.8280    6.7970 ha       150 PS       0.105800
   2398 HZ        -11.7540   14.0880    4.7570 ha       150 PS       0.124800
   2399 HE2       -12.9940   14.1480    2.5470 ha       150 PS       0.105800
   2400 HD2       -15.2140   13.1780    2.3770 ha       150 PS       0.124600
   2401 C2          5.3660  -30.3920   -4.4730 c3       151 PS       0.031000
   2402 C1          5.5060  -30.8220   -5.9230 c3       151 PS       0.000400
   2403 CG          4.1460  -31.1020   -6.6930 ca       151 PS       0.250900
   2404 CD1         3.3760  -29.9920   -7.0730 ca       151 PS      -0.270200
   2405 CE1         2.1660  -30.2320   -7.7230 ca       151 PS      -0.050500
   2406 CZ          1.6560  -31.5020   -7.9130 ca       151 PS      -0.188800
   2407 CE2         2.4460  -32.5720   -7.5630 ca       151 PS      -0.050500
   2408 CD2         3.7360  -32.3520   -7.0330 ca       151 PS      -0.270200
   2409 H21         4.5160  -29.7120   -4.3630 hc       151 PS      -0.016200
   2410 H22         5.0660  -31.2420   -3.8430 hc       151 PS      -0.016200
   2411 H1          6.0660  -31.7620   -5.8530 hc       151 PS      -0.005300
   2412 HD1         3.6560  -28.9820   -6.7830 ha       151 PS       0.124600
   2413 HE1         1.5060  -29.4120   -7.9630 ha       151 PS       0.105800
   2414 HZ          0.6760  -31.6120   -8.3530 ha       151 PS       0.124800
   2415 HE2         2.1060  -33.6020   -7.6630 ha       151 PS       0.105800
   2416 HD2         4.3960  -33.1420   -6.6930 ha       151 PS       0.124600
   2417 C2          6.5060  -29.9620   -6.6930 c3       152 PS       0.031000
   2418 C1          7.9360  -29.9420   -6.0630 c3       152 PS       0.000400
   2419 CG          8.5960  -31.3520   -6.2230 ca       152 PS       0.250900
   2420 CD1         8.8960  -32.2120   -5.1130 ca       152 PS      -0.270200
   2421 CE1         9.4760  -33.4320   -5.3530 ca       152 PS      -0.050500
   2422 CZ          9.6460  -33.9320   -6.6930 ca       152 PS      -0.188800
   2423 CE2         9.4160  -33.0920   -7.7730 ca       152 PS      -0.050500
   2424 CD2         8.9260  -31.7620   -7.5230 ca       152 PS      -0.270200
   2425 H21         6.5060  -30.2520   -7.7530 hc       152 PS      -0.016200
   2426 H22         6.1360  -28.9320   -6.6930 hc       152 PS      -0.016200
   2427 H1          7.7460  -29.7320   -5.0030 hc       152 PS      -0.005300
   2428 HD1         8.7660  -31.8820   -4.0930 ha       152 PS       0.124600
   2429 HE1         9.7560  -34.0120   -4.4830 ha       152 PS       0.105800
   2430 HZ          9.9960  -34.9420   -6.8830 ha       152 PS       0.124800
   2431 HE2         9.5460  -33.4820   -8.7730 ha       152 PS       0.105800
   2432 HD2         8.8960  -31.0420   -8.3330 ha       152 PS       0.124600
   2433 C2          8.8560  -28.7420   -6.5930 c3       153 PS       0.031000
   2434 C1         10.3560  -28.8420   -6.1430 c3       153 PS       0.000400
   2435 CG         11.0560  -27.6020   -6.5330 ca       153 PS       0.250900
   2436 CD1        11.8760  -27.5720   -7.6230 ca       153 PS      -0.270200
   2437 CE1        12.6560  -26.4120   -7.9830 ca       153 PS      -0.050500
   2438 CZ         12.4660  -25.2720   -7.2030 ca       153 PS      -0.188800
   2439 CE2        11.4860  -25.2420   -6.2030 ca       153 PS      -0.050500
   2440 CD2        10.7760  -26.4320   -5.8530 ca       153 PS      -0.270200
   2441 H21         8.8060  -28.6420   -7.6930 hc       153 PS      -0.016200
   2442 H22         8.4860  -27.7820   -6.2430 hc       153 PS      -0.016200
   2443 H1         10.8560  -29.6320   -6.7330 hc       153 PS      -0.005300
   2444 HD1        12.0060  -28.4320   -8.2630 ha       153 PS       0.124600
   2445 HE1        13.2360  -26.4720   -8.8930 ha       153 PS       0.105800
   2446 HZ         12.9960  -24.3420   -7.4030 ha       153 PS       0.124800
   2447 HE2        11.2460  -24.2620   -5.8030 ha       153 PS       0.105800
   2448 HD2         9.9660  -26.3520   -5.1430 ha       153 PS       0.124600
   2449 C2         10.6960  -29.2520   -4.6630 c3       154 PS       0.031000
   2450 C1         12.1960  -29.6820   -4.3430 c3       154 PS       0.000400
   2451 CG         13.2560  -29.5120   -5.4230 ca       154 PS       0.250900
   2452 CD1        14.1960  -28.5720   -5.3030 ca       154 PS      -0.270200
   2453 CE1        15.1960  -28.4820   -6.2930 ca       154 PS      -0.050500
   2454 CZ         15.0860  -29.2720   -7.5030 ca       154 PS      -0.188800
   2455 CE2        14.0960  -30.2720   -7.5630 ca       154 PS      -0.050500
   2456 CD2        13.2360  -30.3920   -6.4930 ca       154 PS      -0.270200
   2457 H21        10.5560  -28.2720   -4.1730 hc       154 PS      -0.016200
   2458 H22         9.9260  -29.9220   -4.2630 hc       154 PS      -0.016200
   2459 H1         12.5260  -29.0320   -3.5230 hc       154 PS      -0.005300
   2460 HD1        14.1460  -27.8820   -4.4730 ha       154 PS       0.124600
   2461 HE1        16.0060  -27.7820   -6.1130 ha       154 PS       0.105800
   2462 HZ         15.7860  -29.2020   -8.3330 ha       154 PS       0.124800
   2463 HE2        14.1560  -30.9320   -8.4230 ha       154 PS       0.105800
   2464 HD2        12.5660  -31.2420   -6.4330 ha       154 PS       0.124600
   2465 C2         12.1860  -31.0120   -3.6130 c3       155 PS       0.031000
   2466 C1         13.6460  -31.5920   -3.2830 c3       155 PS       0.000400
   2467 CG         14.4560  -30.6820   -2.3230 ca       155 PS       0.250900
   2468 CD1        13.9260  -30.0520   -1.1830 ca       155 PS      -0.270200
   2469 CE1        14.7360  -29.4820   -0.1930 ca       155 PS      -0.050500
   2470 CZ         16.0960  -29.7320   -0.2930 ca       155 PS      -0.188800
   2471 CE2        16.6660  -30.4120   -1.3830 ca       155 PS      -0.050500
   2472 CD2        15.8760  -30.8520   -2.3830 ca       155 PS      -0.270200
   2473 H21        11.6760  -31.0320   -2.6430 hc       155 PS      -0.016200
   2474 H22        11.5860  -31.6320   -4.2930 hc       155 PS      -0.016200
   2475 H1         14.1060  -31.6220   -4.2830 hc       155 PS      -0.005300
   2476 HD1        12.8460  -29.9820   -1.1230 ha       155 PS       0.124600
   2477 HE1        14.3860  -28.8720    0.6370 ha       155 PS       0.105800
   2478 HZ         16.6760  -29.2620    0.4970 ha       155 PS       0.124800
   2479 HE2        17.7360  -30.5220   -1.5430 ha       155 PS       0.105800
   2480 HD2        16.2460  -31.2920   -3.3030 ha       155 PS       0.124600
   2481 C2         13.7060  -33.0620   -2.7530 c3       156 PS       0.031000
   2482 C1         13.2460  -34.1120   -3.8530 c3       156 PS       0.000400
   2483 CG         14.0960  -34.1120   -5.1730 ca       156 PS       0.250900
   2484 CD1        13.5260  -33.7820   -6.4330 ca       156 PS      -0.270200
   2485 CE1        14.3760  -33.8220   -7.5530 ca       156 PS      -0.050500
   2486 CZ         15.7060  -34.2320   -7.5130 ca       156 PS      -0.188800
   2487 CE2        16.2060  -34.7120   -6.2830 ca       156 PS      -0.050500
   2488 CD2        15.3860  -34.6420   -5.1230 ca       156 PS      -0.270200
   2489 H21        14.7660  -33.2620   -2.5530 hc       156 PS      -0.016200
   2490 H22        13.1260  -33.1920   -1.8330 hc       156 PS      -0.016200
   2491 H1         12.2360  -33.8120   -4.1630 hc       156 PS      -0.005300
   2492 HD1        12.4860  -33.5320   -6.6130 ha       156 PS       0.124600
   2493 HE1        14.0160  -33.3720   -8.4730 ha       156 PS       0.105800
   2494 HZ         16.3560  -34.2520   -8.3830 ha       156 PS       0.124800
   2495 HE2        17.2460  -35.0220   -6.2730 ha       156 PS       0.105800
   2496 HD2        15.8360  -34.8820   -4.1730 ha       156 PS       0.124600
   2497 C2         13.1660  -35.5820   -3.3730 c3       157 PS       0.031000
   2498 C1         12.4460  -36.5820   -4.4230 c3       157 PS       0.000400
   2499 CG         13.4560  -37.2820   -5.3930 ca       157 PS       0.250900
   2500 CD1        13.4660  -36.9920   -6.7730 ca       157 PS      -0.270200
   2501 CE1        14.4160  -37.5020   -7.6330 ca       157 PS      -0.050500
   2502 CZ         15.4560  -38.2120   -7.0530 ca       157 PS      -0.188800
   2503 CE2        15.4360  -38.5020   -5.6730 ca       157 PS      -0.050500
   2504 CD2        14.4460  -38.0820   -4.8130 ca       157 PS      -0.270200
   2505 H21        14.1260  -36.0220   -3.0430 hc       157 PS      -0.016200
   2506 H22        12.4760  -35.5520   -2.5230 hc       157 PS      -0.016200
   2507 H1         11.9760  -35.8520   -5.0830 hc       157 PS      -0.005300
   2508 HD1        12.7460  -36.3320   -7.2530 ha       157 PS       0.124600
   2509 HE1        14.4460  -37.2720   -8.6930 ha       157 PS       0.105800
   2510 HZ         16.2060  -38.6020   -7.7330 ha       157 PS       0.124800
   2511 HE2        16.1960  -39.0820   -5.1730 ha       157 PS       0.105800
   2512 HD2        14.3360  -38.4720   -3.8130 ha       157 PS       0.124600
   2513 C2         11.5260  -37.6320   -3.8130 c3       158 PS       0.031000
   2514 C1         10.5260  -38.3520   -4.8330 c3       158 PS       0.000400
   2515 CG          9.3460  -37.5220   -5.3530 ca       158 PS       0.250900
   2516 CD1         8.8260  -37.6620   -6.7130 ca       158 PS      -0.270200
   2517 CE1         7.7460  -36.8920   -7.1430 ca       158 PS      -0.050500
   2518 CZ          7.1960  -35.9920   -6.2630 ca       158 PS      -0.188800
   2519 CE2         7.4960  -36.0220   -4.9130 ca       158 PS      -0.050500
   2520 CD2         8.5860  -36.7320   -4.4730 ca       158 PS      -0.270200
   2521 H21        12.0860  -38.4020   -3.2630 hc       158 PS      -0.016200
   2522 H22        11.0460  -37.0420   -3.0330 hc       158 PS      -0.016200
   2523 H1         11.1360  -38.6020   -5.7130 hc       158 PS      -0.005300
   2524 HD1         9.2860  -38.3420   -7.4230 ha       158 PS       0.124600
   2525 HE1         7.4360  -36.9520   -8.1830 ha       158 PS       0.105800
   2526 HZ          6.2460  -35.5220   -6.4730 ha       158 PS       0.124800
   2527 HE2         6.8760  -35.3820   -4.2930 ha       158 PS       0.105800
   2528 HD2         8.9460  -36.7220   -3.4430 ha       158 PS       0.124600
   2529 C2         10.0060   40.3180   -4.1530 c3       159 PS       0.031000
   2530 C1          9.6860   39.2580   -5.2030 c3       159 PS       0.000400
   2531 CG         10.9060   38.5780   -5.9230 ca       159 PS       0.250900
   2532 CD1        12.2460   38.8280   -5.4730 ca       159 PS      -0.270200
   2533 CE1        13.3160   38.2780   -6.1830 ca       159 PS      -0.050500
   2534 CZ         13.0060   37.4480   -7.3230 ca       159 PS      -0.188800
   2535 CE2        11.6860   37.0880   -7.6930 ca       159 PS      -0.050500
   2536 CD2        10.6460   37.7180   -7.0230 ca       159 PS      -0.270200
   2537 H21        10.5660   39.7780   -3.3730 hc       159 PS      -0.016200
   2538 H22         9.0860   40.6880   -3.6830 hc       159 PS      -0.016200
   2539 H1          9.1060   39.6980   -6.0230 hc       159 PS      -0.005300
   2540 HD1        12.4060   39.4780   -4.6230 ha       159 PS       0.124600
   2541 HE1        14.3460   38.4980   -5.9230 ha       159 PS       0.105800
   2542 HZ         13.7860   36.8880   -7.8430 ha       159 PS       0.124800
   2543 HE2        11.4960   36.5780   -8.6330 ha       159 PS       0.105800
   2544 HD2         9.5960   37.5880   -7.2830 ha       159 PS       0.124600
   2545 C2          8.9060   38.2080   -4.4630 c3       160 PS       0.031000
   2546 C1          7.4460   38.5380   -4.1030 c3       160 PS       0.000400
   2547 CG          6.5760   38.9780   -5.3530 ca       160 PS       0.250900
   2548 CD1         6.1560   40.2780   -5.4530 ca       160 PS      -0.270200
   2549 CE1         5.5960   40.7080   -6.6330 ca       160 PS      -0.050500
   2550 CZ          5.2560   39.8180   -7.6330 ca       160 PS      -0.188800
   2551 CE2         5.7260   38.4980   -7.5430 ca       160 PS      -0.050500
   2552 CD2         6.4360   38.0880   -6.4430 ca       160 PS      -0.270200
   2553 H21         8.9660   37.2480   -4.9930 hc       160 PS      -0.016200
   2554 H22         9.4960   37.9280   -3.5830 hc       160 PS      -0.016200
   2555 H1          7.4460   39.3680   -3.3830 hc       160 PS      -0.005300
   2556 HD1         6.2060   40.9080   -4.5630 ha       160 PS       0.124600
   2557 HE1         5.3460   41.7680   -6.7130 ha       160 PS       0.105800
   2558 HZ          4.7960   40.1780   -8.5530 ha       160 PS       0.124800
   2559 HE2         5.4660   37.7580   -8.3030 ha       160 PS       0.105800
   2560 HD2         6.8060   37.0780   -6.2930 ha       160 PS       0.124600
   2561 C2          6.7660   37.2780   -3.4130 c3       161 PS       0.031000
   2562 C1          6.1960   37.5180   -2.0330 c3       161 PS       0.000400
   2563 CG          5.9060   36.1780   -1.3030 ca       161 PS       0.250900
   2564 CD1         6.3160   35.8980    0.0070 ca       161 PS      -0.270200
   2565 CE1         5.9760   34.7480    0.6570 ca       161 PS      -0.050500
   2566 CZ          5.2260   33.8180   -0.0630 ca       161 PS      -0.188800
   2567 CE2         4.8060   33.9880   -1.3530 ca       161 PS      -0.050500
   2568 CD2         5.0960   35.2480   -1.9930 ca       161 PS      -0.270200
   2569 H21         5.9960   36.9080   -4.0930 hc       161 PS      -0.016200
   2570 H22         7.4660   36.4380   -3.3930 hc       161 PS      -0.016200
   2571 H1          7.0160   38.0480   -1.5230 hc       161 PS      -0.005300
   2572 HD1         6.9560   36.6380    0.4970 ha       161 PS       0.124600
   2573 HE1         6.2660   34.5280    1.6770 ha       161 PS       0.105800
   2574 HZ          4.9260   32.8380    0.2970 ha       161 PS       0.124800
   2575 HE2         4.2560   33.1880   -1.8330 ha       161 PS       0.105800
   2576 HD2         4.7160   35.4280   -2.9930 ha       161 PS       0.124600
   2577 C2          5.0660   38.5980   -2.1130 c3       162 PS       0.031000
   2578 C1          4.4460   39.0780   -0.7430 c3       162 PS       0.000400
   2579 CG          3.6060   37.9880    0.0070 ca       162 PS       0.250900
   2580 CD1         3.9860   37.5880    1.2970 ca       162 PS      -0.270200
   2581 CE1         3.3860   36.4580    1.9570 ca       162 PS      -0.050500
   2582 CZ          2.2560   35.8380    1.3470 ca       162 PS      -0.188800
   2583 CE2         1.7960   36.3880    0.1470 ca       162 PS      -0.050500
   2584 CD2         2.4860   37.3780   -0.5030 ca       162 PS      -0.270200
   2585 H21         5.5860   39.4980   -2.4730 hc       162 PS      -0.016200
   2586 H22         4.2460   38.3480   -2.8030 hc       162 PS      -0.016200
   2587 H1          5.3660   39.3180   -0.2030 hc       162 PS      -0.005300
   2588 HD1         4.7660   38.1680    1.7870 ha       162 PS       0.124600
   2589 HE1         3.7160   36.1280    2.9470 ha       162 PS       0.105800
   2590 HZ          1.6660   35.0680    1.8170 ha       162 PS       0.124800
   2591 HE2         0.9560   35.9380   -0.3730 ha       162 PS       0.105800
   2592 HD2         2.2360   37.7780   -1.4730 ha       162 PS       0.124600
   2593 C2          3.5760  -39.6820   -0.8630 c3       163 PS       0.031000
   2594 C1          4.3360  -38.3120   -1.1330 c3       163 PS       0.000400
   2595 CG          5.7760  -38.2720   -0.6430 ca       163 PS       0.250900
   2596 CD1         6.0260  -38.1820    0.7270 ca       163 PS      -0.270200
   2597 CE1         7.3160  -37.9120    1.2070 ca       163 PS      -0.050500
   2598 CZ          8.4260  -37.8720    0.2970 ca       163 PS      -0.188800
   2599 CE2         8.1760  -38.1220   -1.0730 ca       163 PS      -0.050500
   2600 CD2         6.8860  -38.3620   -1.5530 ca       163 PS      -0.270200
   2601 H21         2.7460  -39.7720   -1.5730 hc       163 PS      -0.016200
   2602 H22         3.0560  -39.5820    0.0970 hc       163 PS      -0.016200
   2603 H1          3.9860  -37.5520   -0.4330 hc       163 PS      -0.005300
   2604 HD1         5.2260  -38.1420    1.4570 ha       163 PS       0.124600
   2605 HE1         7.5760  -37.7620    2.2570 ha       163 PS       0.105800
   2606 HZ          9.4360  -37.6420    0.6170 ha       163 PS       0.124800
   2607 HE2         8.9860  -38.1120   -1.7930 ha       163 PS       0.105800
   2608 HD2         6.6860  -38.6320   -2.5830 ha       163 PS       0.124600
   2609 C2          4.1360  -37.7420   -2.5430 c3       164 PS       0.031000
   2610 C1          2.7360  -37.1820   -2.9030 c3       164 PS       0.000400
   2611 CG          2.5460  -37.2620   -4.4030 ca       164 PS       0.250900
   2612 CD1         3.3060  -36.5420   -5.3930 ca       164 PS      -0.270200
   2613 CE1         3.0360  -36.6520   -6.7230 ca       164 PS      -0.050500
   2614 CZ          2.0560  -37.5420   -7.1730 ca       164 PS      -0.188800
   2615 CE2         1.2960  -38.2120   -6.1830 ca       164 PS      -0.050500
   2616 CD2         1.5060  -38.0620   -4.8530 ca       164 PS      -0.270200
   2617 H21         4.8860  -36.9520   -2.6830 hc       164 PS      -0.016200
   2618 H22         4.2660  -38.5820   -3.2330 hc       164 PS      -0.016200
   2619 H1          1.9660  -37.7620   -2.3830 hc       164 PS      -0.005300
   2620 HD1         4.1560  -36.0020   -4.9730 ha       164 PS       0.124600
   2621 HE1         3.6860  -36.1320   -7.4230 ha       164 PS       0.105800
   2622 HZ          1.8460  -37.8020   -8.2130 ha       164 PS       0.124800
   2623 HE2         0.4960  -38.8620   -6.5330 ha       164 PS       0.105800
   2624 HD2         0.9060  -38.5420   -4.0830 ha       164 PS       0.124600
   2625 C2          2.6760  -35.6620   -2.4330 c3       165 PS       0.031000
   2626 C1          1.2760  -34.9520   -2.7530 c3       165 PS       0.000400
   2627 CG          1.6360  -33.4520   -2.8130 ca       165 PS       0.250900
   2628 CD1         1.5860  -32.7220   -4.0530 ca       165 PS      -0.270200
   2629 CE1         1.8060  -31.3520   -4.0330 ca       165 PS      -0.050500
   2630 CZ          2.0660  -30.6820   -2.7930 ca       165 PS      -0.188800
   2631 CE2         1.9760  -31.3920   -1.5930 ca       165 PS      -0.050500
   2632 CD2         1.8260  -32.8120   -1.6330 ca       165 PS      -0.270200
   2633 H21         2.7160  -35.5820   -1.3430 hc       165 PS      -0.016200
   2634 H22         3.4760  -35.0420   -2.8430 hc       165 PS      -0.016200
   2635 H1          0.9660  -35.3020   -3.7430 hc       165 PS      -0.005300
   2636 HD1         1.3760  -33.2120   -4.9930 ha       165 PS       0.124600
   2637 HE1         1.6260  -30.8220   -4.9730 ha       165 PS       0.105800
   2638 HZ          2.1560  -29.5920   -2.8130 ha       165 PS       0.124800
   2639 HE2         2.0160  -30.8720   -0.6530 ha       165 PS       0.105800
   2640 HD2         1.9360  -33.4020   -0.7230 ha       165 PS       0.124600
   2641 C2          0.1760  -35.3620   -1.8430 c3       166 PS       0.031000
   2642 C1         -1.1240  -34.4520   -1.6730 c3       166 PS       0.000400
   2643 CG         -2.0440  -34.9220   -0.4730 ca       166 PS       0.250900
   2644 CD1        -2.9640  -35.9520   -0.5330 ca       166 PS      -0.270200
   2645 CE1        -3.8240  -36.2520    0.5470 ca       166 PS      -0.050500
   2646 CZ         -3.7040  -35.4720    1.7770 ca       166 PS      -0.188800
   2647 CE2        -2.7240  -34.4820    1.8670 ca       166 PS      -0.050500
   2648 CD2        -1.9840  -34.2020    0.7170 ca       166 PS      -0.270200
   2649 H21        -0.3140  -36.2720   -2.1930 hc       166 PS      -0.016200
   2650 H22         0.6760  -35.5020   -0.8730 hc       166 PS      -0.016200
   2651 H1         -0.7640  -33.4320   -1.5430 hc       166 PS      -0.005300
   2652 HD1        -3.0340  -36.4420   -1.4930 ha       166 PS       0.124600
   2653 HE1        -4.5740  -37.0420    0.5070 ha       166 PS       0.105800
   2654 HZ         -4.3040  -35.7520    2.6470 ha       166 PS       0.124800
   2655 HE2        -2.6240  -33.9620    2.8070 ha       166 PS       0.105800
   2656 HD2        -1.1840  -33.4720    0.8070 ha       166 PS       0.124600
   2657 C2         -1.7940  -34.2820   -3.0430 c3       167 PS       0.031000
   2658 C1         -2.2740  -32.9020   -3.5030 c3       167 PS       0.000400
   2659 CG         -2.4240  -32.8020   -5.0130 ca       167 PS       0.250900
   2660 CD1        -1.9340  -31.7620   -5.7430 ca       167 PS      -0.270200
   2661 CE1        -1.9340  -31.7420   -7.1230 ca       167 PS      -0.050500
   2662 CZ         -2.5740  -32.8120   -7.8130 ca       167 PS      -0.188800
   2663 CE2        -3.2040  -33.8520   -7.0630 ca       167 PS      -0.050500
   2664 CD2        -3.1440  -33.8020   -5.6730 ca       167 PS      -0.270200
   2665 H21        -1.0240  -34.6220   -3.7430 hc       167 PS      -0.016200
   2666 H22        -2.5740  -35.0420   -3.1630 hc       167 PS      -0.016200
   2667 H1         -1.4040  -32.2920   -3.1930 hc       167 PS      -0.005300
   2668 HD1        -1.4540  -30.9320   -5.2230 ha       167 PS       0.124600
   2669 HE1        -1.5640  -30.8220   -7.5730 ha       167 PS       0.105800
   2670 HZ         -2.6940  -32.8620   -8.8930 ha       167 PS       0.124800
   2671 HE2        -3.8140  -34.5120   -7.6630 ha       167 PS       0.105800
   2672 HD2        -3.4540  -34.7220   -5.1930 ha       167 PS       0.124600
   2673 C2         -3.6040  -32.3720   -2.7930 c3       168 PS       0.031000
   2674 C1         -3.7240  -30.8420   -2.9630 c3       168 PS       0.000400
   2675 CG         -2.5440  -30.0820   -2.3530 ca       168 PS       0.250900
   2676 CD1        -1.6740  -29.2320   -3.1130 ca       168 PS      -0.270200
   2677 CE1        -0.5940  -28.6920   -2.4830 ca       168 PS      -0.050500
   2678 CZ         -0.3340  -28.9020   -1.1330 ca       168 PS      -0.188800
   2679 CE2        -1.2240  -29.6420   -0.2930 ca       168 PS      -0.050500
   2680 CD2        -2.3140  -30.2520   -0.9730 ca       168 PS      -0.270200
   2681 H21        -4.4840  -32.8420   -3.2430 hc       168 PS      -0.016200
   2682 H22        -3.6140  -32.7120   -1.7530 hc       168 PS      -0.016200
   2683 H1         -3.7940  -30.6220   -4.0330 hc       168 PS      -0.005300
   2684 HD1        -1.8440  -29.0320   -4.1630 ha       168 PS       0.124600
   2685 HE1         0.1560  -28.1220   -3.0130 ha       168 PS       0.105800
   2686 HZ          0.5760  -28.3920   -0.8030 ha       168 PS       0.124800
   2687 HE2        -0.9140  -29.7720    0.7470 ha       168 PS       0.105800
   2688 HD2        -2.9940  -30.7720   -0.3030 ha       168 PS       0.124600
   2689 C2         -5.0240  -30.3120   -2.3030 c3       169 PS       0.031000
   2690 C1         -6.3240  -30.6220   -3.1630 c3       169 PS       0.000400
   2691 CG         -6.1340  -30.2820   -4.6630 ca       169 PS       0.250900
   2692 CD1        -5.9240  -28.9620   -5.1630 ca       169 PS      -0.270200
   2693 CE1        -5.6840  -28.7320   -6.4730 ca       169 PS      -0.050500
   2694 CZ         -5.7140  -29.7920   -7.3730 ca       169 PS      -0.188800
   2695 CE2        -5.8440  -31.1820   -6.9330 ca       169 PS      -0.050500
   2696 CD2        -6.0740  -31.3920   -5.5730 ca       169 PS      -0.270200
   2697 H21        -5.1540  -30.7120   -1.2930 hc       169 PS      -0.016200
   2698 H22        -4.9140  -29.2320   -2.1630 hc       169 PS      -0.016200
   2699 H1         -6.4240  -31.7120   -3.0530 hc       169 PS      -0.005300
   2700 HD1        -5.9640  -28.1120   -4.5030 ha       169 PS       0.124600
   2701 HE1        -5.6140  -27.7320   -6.8830 ha       169 PS       0.105800
   2702 HZ         -5.7140  -29.5620   -8.4330 ha       169 PS       0.124800
   2703 HE2        -6.0140  -31.9420   -7.6830 ha       169 PS       0.105800
   2704 HD2        -6.1840  -32.4420   -5.3230 ha       169 PS       0.124600
   2705 C2         -7.5540  -29.8420   -2.5830 c3       170 PS       0.031000
   2706 C1         -8.7840  -30.0420   -3.4130 c3       170 PS       0.000400
   2707 CG         -9.1540  -31.5720   -3.4930 ca       170 PS       0.250900
   2708 CD1        -9.4540  -32.3220   -2.3330 ca       170 PS      -0.270200
   2709 CE1        -9.6540  -33.7120   -2.4330 ca       170 PS      -0.050500
   2710 CZ         -9.6340  -34.3320   -3.7330 ca       170 PS      -0.188800
   2711 CE2        -9.3840  -33.5820   -4.8130 ca       170 PS      -0.050500
   2712 CD2        -9.0740  -32.2520   -4.7330 ca       170 PS      -0.270200
   2713 H21        -7.8340  -30.2120   -1.5930 hc       170 PS      -0.016200
   2714 H22        -7.4240  -28.7620   -2.4230 hc       170 PS      -0.016200
   2715 H1         -8.5340  -29.7220   -4.4230 hc       170 PS      -0.005300
   2716 HD1        -9.5140  -31.7720   -1.4030 ha       170 PS       0.124600
   2717 HE1        -9.9040  -34.3420   -1.5830 ha       170 PS       0.105800
   2718 HZ         -9.8140  -35.3820   -3.9230 ha       170 PS       0.124800
   2719 HE2        -9.3840  -33.9720   -5.8330 ha       170 PS       0.105800
   2720 HD2        -8.8240  -31.5820   -5.5430 ha       170 PS       0.124600
   2721 C2         -9.9440  -29.1820   -2.9730 c3       171 PS       0.031000
   2722 C1        -11.0240  -28.9820   -4.0530 c3       171 PS       0.000400
   2723 CG        -10.6040  -27.9120   -5.0130 ca       171 PS       0.250900
   2724 CD1       -10.1240  -28.3220   -6.2730 ca       171 PS      -0.270200
   2725 CE1        -9.9740  -27.3620   -7.2730 ca       171 PS      -0.050500
   2726 CZ        -10.3340  -26.0420   -7.1130 ca       171 PS      -0.188800
   2727 CE2       -10.8140  -25.5920   -5.9030 ca       171 PS      -0.050500
   2728 CD2       -10.9340  -26.5320   -4.8330 ca       171 PS      -0.270200
   2729 H21       -10.3640  -29.6120   -2.0430 hc       171 PS      -0.016200
   2730 H22        -9.5340  -28.2420   -2.5830 hc       171 PS      -0.016200
   2731 H1        -11.0440  -29.9220   -4.6230 hc       171 PS      -0.005300
   2732 HD1        -9.7740  -29.3420   -6.4030 ha       171 PS       0.124600
   2733 HE1        -9.6340  -27.6920   -8.2430 ha       171 PS       0.105800
   2734 HZ        -10.1040  -25.4520   -8.0030 ha       171 PS       0.124800
   2735 HE2       -11.0540  -24.5420   -5.8230 ha       171 PS       0.105800
   2736 HD2       -11.1540  -26.1020   -3.8630 ha       171 PS       0.124600
   2737 C2        -12.4840  -28.7320   -3.4630 c3       172 PS       0.031000
   2738 C1        -13.6540  -28.3820   -4.4230 c3       172 PS       0.000400
   2739 CG        -13.5140  -29.2120   -5.7130 ca       172 PS       0.250900
   2740 CD1       -13.3540  -28.4920   -6.9630 ca       172 PS      -0.270200
   2741 CE1       -13.1840  -29.2220   -8.1330 ca       172 PS      -0.050500
   2742 CZ        -13.1840  -30.6520   -8.0930 ca       172 PS      -0.188800
   2743 CE2       -13.3440  -31.2720   -6.8430 ca       172 PS      -0.050500
   2744 CD2       -13.4340  -30.6120   -5.6730 ca       172 PS      -0.270200
   2745 H21       -12.7940  -29.5920   -2.8430 hc       172 PS      -0.016200
   2746 H22       -12.4340  -27.9220   -2.7330 hc       172 PS      -0.016200
   2747 H1        -13.5540  -27.3320   -4.7130 hc       172 PS      -0.005300
   2748 HD1       -13.4440  -27.4120   -6.9230 ha       172 PS       0.124600
   2749 HE1       -13.0140  -28.6620   -9.0530 ha       172 PS       0.105800
   2750 HZ        -12.9140  -31.2820   -8.9230 ha       172 PS       0.124800
   2751 HE2       -13.1440  -32.3420   -6.7930 ha       172 PS       0.105800
   2752 HD2       -13.5040  -31.0720   -4.6930 ha       172 PS       0.124600
   2753 C2        -15.0240  -28.6020   -3.7030 c3       173 PS       0.031000
   2754 C1        -16.2740  -28.2620   -4.5330 c3       173 PS       0.000400
   2755 CG        -16.5140  -26.7920   -4.3730 ca       173 PS       0.250900
   2756 CD1       -16.3840  -25.9220   -5.5530 ca       173 PS      -0.270200
   2757 CE1       -16.6140  -24.5520   -5.4530 ca       173 PS      -0.050500
   2758 CZ        -16.9940  -23.9620   -4.2330 ca       173 PS      -0.188800
   2759 CE2       -17.2340  -24.8220   -3.0730 ca       173 PS      -0.050500
   2760 CD2       -16.9040  -26.1620   -3.1730 ca       173 PS      -0.270200
   2761 H21       -15.0240  -29.6320   -3.3230 hc       173 PS      -0.016200
   2762 H22       -15.0340  -27.9720   -2.8030 hc       173 PS      -0.016200
   2763 H1        -16.0840  -28.5320   -5.5730 hc       173 PS      -0.005300
   2764 HD1       -16.0240  -26.3520   -6.4730 ha       173 PS       0.124600
   2765 HE1       -16.4240  -23.9120   -6.3130 ha       173 PS       0.105800
   2766 HZ        -17.0740  -22.8820   -4.1530 ha       173 PS       0.124800
   2767 HE2       -17.6940  -24.4120   -2.1830 ha       173 PS       0.105800
   2768 HD2       -16.9840  -26.7120   -2.2330 ha       173 PS       0.124600
   2769 C2        -17.5640  -28.9520   -4.0830 c3       174 PS       0.031000
   2770 C1        -17.6940  -30.5620   -4.2330 c3       174 PS       0.000400
   2771 CG        -17.0440  -31.3020   -5.5030 ca       174 PS       0.250900
   2772 CD1       -17.4340  -30.8020   -6.7830 ca       174 PS      -0.270200
   2773 CE1       -17.0640  -31.4120   -7.9430 ca       174 PS      -0.050500
   2774 CZ        -16.2740  -32.5920   -7.8930 ca       174 PS      -0.188800
   2775 CE2       -15.9140  -33.1520   -6.6230 ca       174 PS      -0.050500
   2776 CD2       -16.2940  -32.4620   -5.4330 ca       174 PS      -0.270200
   2777 H21       -17.6940  -28.7120   -3.0230 hc       174 PS      -0.016200
   2778 H22       -18.3740  -28.5220   -4.6930 hc       174 PS      -0.016200
   2779 H1        -17.2440  -31.0820   -3.3730 hc       174 PS      -0.005300
   2780 HD1       -18.0340  -29.8920   -6.8030 ha       174 PS       0.124600
   2781 HE1       -17.3740  -30.9820   -8.8930 ha       174 PS       0.105800
   2782 HZ        -16.0240  -33.0620   -8.8430 ha       174 PS       0.124800
   2783 HE2       -15.1740  -33.9520   -6.6130 ha       174 PS       0.105800
   2784 HD2       -16.0140  -32.9120   -4.4830 ha       174 PS       0.124600
   2785 C2        -19.2740  -30.7920   -4.2830 c3       175 PS       0.031000
   2786 C1        -19.7440  -32.3220   -4.1830 c3       175 PS       0.000400
   2787 CG        -19.3640  -33.2420   -5.3630 ca       175 PS       0.250900
   2788 CD1       -18.7940  -34.5120   -5.2530 ca       175 PS      -0.270200
   2789 CE1       -18.5140  -35.2720   -6.4730 ca       175 PS      -0.050500
   2790 CZ        -18.9440  -34.7720   -7.7430 ca       175 PS      -0.188800
   2791 CE2       -19.5440  -33.5220   -7.8330 ca       175 PS      -0.050500
   2792 CD2       -19.7940  -32.7720   -6.6730 ca       175 PS      -0.270200
   2793 H21       -19.5940  -30.2820   -3.3630 hc       175 PS      -0.016200
   2794 H22       -19.6840  -30.3020   -5.1730 hc       175 PS      -0.016200
   2795 H1        -19.3540  -32.7420   -3.2530 hc       175 PS      -0.005300
   2796 HD1       -18.5040  -34.9520   -4.3030 ha       175 PS       0.124600
   2797 HE1       -18.1140  -36.2720   -6.3630 ha       175 PS       0.105800
   2798 HZ        -18.6040  -35.3420   -8.6030 ha       175 PS       0.124800
   2799 HE2       -19.8940  -33.1720   -8.8030 ha       175 PS       0.105800
   2800 HD2       -20.1540  -31.7620   -6.8230 ha       175 PS       0.124600
   2801 C2        -21.3140  -32.3020   -3.9930 c3       176 PS       0.031000
   2802 C1        -22.0940  -33.6220   -3.6830 c3       176 PS       0.000400
   2803 CG        -22.3440  -34.4120   -4.9630 ca       176 PS       0.250900
   2804 CD1       -23.0640  -33.8820   -6.0430 ca       176 PS      -0.270200
   2805 CE1       -23.2340  -34.6120   -7.2130 ca       176 PS      -0.050500
   2806 CZ        -22.4440  -35.7420   -7.3930 ca       176 PS      -0.188800
   2807 CE2       -21.6440  -36.2620   -6.3630 ca       176 PS      -0.050500
   2808 CD2       -21.6740  -35.6420   -5.1730 ca       176 PS      -0.270200
   2809 H21       -21.4240  -31.6420   -3.1230 hc       176 PS      -0.016200
   2810 H22       -21.8140  -31.8720   -4.8630 hc       176 PS      -0.016200
   2811 H1        -21.5740  -34.2620   -2.9530 hc       176 PS      -0.005300
   2812 HD1       -23.4940  -32.8820   -5.9330 ha       176 PS       0.124600
   2813 HE1       -23.7740  -34.2020   -8.0630 ha       176 PS       0.105800
   2814 HZ        -22.4840  -36.3320   -8.3030 ha       176 PS       0.124800
   2815 HE2       -20.9340  -37.0720   -6.4430 ha       176 PS       0.105800
   2816 HD2       -21.0540  -35.9620   -4.3430 ha       176 PS       0.124600
   2817 C2        -23.4440  -33.2920   -3.0030 c3       177 PS       0.031000
   2818 C1        -23.4040  -33.4720   -1.4430 c3       177 PS       0.000400
   2819 CG        -24.5740  -32.6720   -0.8430 ca       177 PS       0.250900
   2820 CD1       -24.3640  -31.7520    0.1270 ca       177 PS      -0.270200
   2821 CE1       -25.3840  -30.9220    0.6270 ca       177 PS      -0.050500
   2822 CZ        -26.7640  -31.2620    0.2970 ca       177 PS      -0.188800
   2823 CE2       -27.0240  -32.3520   -0.5630 ca       177 PS      -0.050500
   2824 CD2       -25.9440  -32.9820   -1.1830 ca       177 PS      -0.270200
   2825 H21       -23.6740  -32.2420   -3.2430 hc       177 PS      -0.016200
   2826 H22       -24.2340  -33.9020   -3.4630 hc       177 PS      -0.016200
   2827 H1        -22.4940  -32.9420   -1.1430 hc       177 PS      -0.005300
   2828 HD1       -23.3140  -31.5120    0.2670 ha       177 PS       0.124600
   2829 HE1       -25.1640  -30.0820    1.2870 ha       177 PS       0.105800
   2830 HZ        -27.5840  -30.7420    0.7770 ha       177 PS       0.124800
   2831 HE2       -27.9940  -32.8420   -0.5530 ha       177 PS       0.105800
   2832 HD2       -26.1640  -33.9020   -1.7030 ha       177 PS       0.124600
   2833 C2        -23.3340  -34.9920   -0.9830 c3       178 PS       0.031000
   2834 C1        -23.4640  -35.1820    0.5570 c3       178 PS       0.000400
   2835 CG        -24.7540  -34.8320    1.2370 ca       178 PS       0.250900
   2836 CD1       -24.7240  -34.0320    2.4170 ca       178 PS      -0.270200
   2837 CE1       -25.9140  -33.7520    3.1070 ca       178 PS      -0.050500
   2838 CZ        -27.1240  -34.3920    2.6470 ca       178 PS      -0.188800
   2839 CE2       -27.1640  -35.0420    1.4070 ca       178 PS      -0.050500
   2840 CD2       -25.9640  -35.3120    0.7270 ca       178 PS      -0.270200
   2841 H21       -24.0840  -35.5320   -1.5730 hc       178 PS      -0.016200
   2842 H22       -22.3840  -35.4820   -1.2630 hc       178 PS      -0.016200
   2843 H1        -22.7940  -34.4420    1.0170 hc       178 PS      -0.005300
   2844 HD1       -23.7940  -33.6020    2.7970 ha       178 PS       0.124600
   2845 HE1       -25.8740  -33.2220    4.0570 ha       178 PS       0.105800
   2846 HZ        -28.0740  -34.1420    3.1170 ha       178 PS       0.124800
   2847 HE2       -28.1040  -35.4520    1.0370 ha       178 PS       0.105800
   2848 HD2       -25.9340  -35.9620   -0.1430 ha       178 PS       0.124600
   2849 C2        -22.9440  -36.6320    0.8770 c3       179 PS       0.031000
   2850 C1        -23.2640  -37.2720    2.2670 c3       179 PS       0.000400
   2851 CG        -23.6740  -38.7320    2.1670 ca       179 PS       0.250900
   2852 CD1       -22.8240  -39.8120    2.4270 ca       179 PS      -0.270200
   2853 CE1       -23.3040  -41.1220    2.4470 ca       179 PS      -0.050500
   2854 CZ        -24.6240  -41.3820    2.1570 ca       179 PS      -0.188800
   2855 CE2       -25.4740  -40.3220    1.7270 ca       179 PS      -0.050500
   2856 CD2       -25.0040  -39.0120    1.7870 ca       179 PS      -0.270200
   2857 H21       -23.3740  -37.3820    0.2070 hc       179 PS      -0.016200
   2858 H22       -21.8640  -36.7520    0.7070 hc       179 PS      -0.016200
   2859 H1        -24.1840  -36.8220    2.6570 hc       179 PS      -0.005300
   2860 HD1       -21.7740  -39.5920    2.5670 ha       179 PS       0.124600
   2861 HE1       -22.6040  -41.9320    2.6170 ha       179 PS       0.105800
   2862 HZ        -25.0140  -42.3920    2.1670 ha       179 PS       0.124800
   2863 HE2       -26.5040  -40.5020    1.4470 ha       179 PS       0.105800
   2864 HD2       -25.6640  -38.1920    1.4970 ha       179 PS       0.124600
   2865 C2        -22.2140  -36.9420    3.3370 c3       180 PS       0.031000
   2866 C1        -22.7140  -37.6620    4.6870 c3       180 PS       0.000400
   2867 CG        -23.3940  -36.6720    5.6970 ca       180 PS       0.250900
   2868 CD1       -22.6540  -36.1820    6.7670 ca       180 PS      -0.270200
   2869 CE1       -23.3040  -35.4820    7.7870 ca       180 PS      -0.050500
   2870 CZ        -24.6540  -35.1520    7.6870 ca       180 PS      -0.188800
   2871 CE2       -25.3940  -35.5220    6.5370 ca       180 PS      -0.050500
   2872 CD2       -24.7840  -36.2920    5.5170 ca       180 PS      -0.270200
   2873 H21       -21.1940  -37.3020    3.1470 hc       180 PS      -0.016200
   2874 H22       -22.1840  -35.8520    3.5070 hc       180 PS      -0.016200
   2875 H1        -21.8240  -38.1420    5.1170 hc       180 PS      -0.005300
   2876 HD1       -21.5940  -36.3820    6.9070 ha       180 PS       0.124600
   2877 HE1       -22.7740  -35.2620    8.7070 ha       180 PS       0.105800
   2878 HZ        -25.0740  -34.5120    8.4570 ha       180 PS       0.124800
   2879 HE2       -26.4240  -35.2020    6.4270 ha       180 PS       0.105800
   2880 HD2       -25.3740  -36.6520    4.6770 ha       180 PS       0.124600
   2881 C2         34.8260  -30.0420    7.9970 c3       181 PS       0.031000
   2882 C1         33.7460  -30.4720    7.0170 c3       181 PS       0.000400
   2883 CG         33.5160  -32.0220    7.1870 ca       181 PS       0.250900
   2884 CD1        34.5060  -32.8720    6.6970 ca       181 PS      -0.270200
   2885 CE1        34.3860  -34.2920    6.6970 ca       181 PS      -0.050500
   2886 CZ         33.1560  -34.9020    7.0670 ca       181 PS      -0.188800
   2887 CE2        32.1060  -34.0320    7.4270 ca       181 PS      -0.050500
   2888 CD2        32.2660  -32.6320    7.5270 ca       181 PS      -0.270200
   2889 H21        35.8460  -30.4520    7.9370 hc       181 PS      -0.016200
   2890 H22        34.9060  -28.9620    7.8670 hc       181 PS      -0.016200
   2891 H1         34.1660  -30.2920    6.0270 hc       181 PS      -0.005300
   2892 HD1        35.4560  -32.4020    6.4670 ha       181 PS       0.124600
   2893 HE1        35.1660  -34.9820    6.4170 ha       181 PS       0.105800
   2894 HZ         33.0960  -35.9820    7.1070 ha       181 PS       0.124800
   2895 HE2        31.1560  -34.4420    7.7570 ha       181 PS       0.105800
   2896 HD2        31.4260  -32.0120    7.8370 ha       181 PS       0.124600
   2897 C2         32.5560  -29.4720    7.2870 c3       182 PS       0.031000
   2898 C1         31.5060  -29.4020    6.0570 c3       182 PS       0.000400
   2899 CG         30.1660  -28.8620    6.6370 ca       182 PS       0.250900
   2900 CD1        29.0760  -29.6920    6.7970 ca       182 PS      -0.270200
   2901 CE1        27.9260  -29.3120    7.4670 ca       182 PS      -0.050500
   2902 CZ         27.7460  -27.9520    7.8070 ca       182 PS      -0.188800
   2903 CE2        28.8260  -27.0720    7.6370 ca       182 PS      -0.050500
   2904 CD2        30.0360  -27.5120    7.0970 ca       182 PS      -0.270200
   2905 H21        31.9660  -29.8220    8.1470 hc       182 PS      -0.016200
   2906 H22        32.9960  -28.4920    7.4970 hc       182 PS      -0.016200
   2907 H1         31.2860  -30.4320    5.7470 hc       182 PS      -0.005300
   2908 HD1        29.0660  -30.7320    6.4870 ha       182 PS       0.124600
   2909 HE1        27.1860  -29.9720    7.8970 ha       182 PS       0.105800
   2910 HZ         26.8860  -27.5920    8.3670 ha       182 PS       0.124800
   2911 HE2        28.6960  -26.0520    7.9770 ha       182 PS       0.105800
   2912 HD2        30.8160  -26.7720    6.9670 ha       182 PS       0.124600
   2913 C2         31.9060  -28.5420    4.8170 c3       183 PS       0.031000
   2914 C1         31.0560  -28.8520    3.4870 c3       183 PS       0.000400
   2915 CG         29.5260  -28.6020    3.6370 ca       183 PS       0.250900
   2916 CD1        28.6060  -29.5620    3.3970 ca       183 PS      -0.270200
   2917 CE1        27.2060  -29.3620    3.6470 ca       183 PS      -0.050500
   2918 CZ         26.7560  -28.0420    4.0070 ca       183 PS      -0.188800
   2919 CE2        27.7360  -27.0220    4.2270 ca       183 PS      -0.050500
   2920 CD2        29.1060  -27.2920    4.0370 ca       183 PS      -0.270200
   2921 H21        31.9560  -27.4520    4.9870 hc       183 PS      -0.016200
   2922 H22        32.9160  -28.8220    4.4870 hc       183 PS      -0.016200
   2923 H1         31.1860  -29.9120    3.2270 hc       183 PS      -0.005300
   2924 HD1        28.8860  -30.5320    2.9970 ha       183 PS       0.124600
   2925 HE1        26.4060  -30.0620    3.4470 ha       183 PS       0.105800
   2926 HZ         25.6960  -27.7920    3.9870 ha       183 PS       0.124800
   2927 HE2        27.4360  -26.0120    4.4670 ha       183 PS       0.105800
   2928 HD2        29.7660  -26.4820    4.3270 ha       183 PS       0.124600
   2929 C2         31.6760  -28.0520    2.3770 c3       184 PS       0.031000
   2930 C1         30.8560  -27.8920    1.0770 c3       184 PS       0.000400
   2931 CG         30.5760  -29.2120    0.3770 ca       184 PS       0.250900
   2932 CD1        29.3260  -29.4320   -0.1930 ca       184 PS      -0.270200
   2933 CE1        29.0060  -30.6820   -0.6830 ca       184 PS      -0.050500
   2934 CZ         29.9760  -31.7220   -0.6930 ca       184 PS      -0.188800
   2935 CE2        31.2360  -31.4820   -0.1930 ca       184 PS      -0.050500
   2936 CD2        31.5760  -30.2220    0.3670 ca       184 PS      -0.270200
   2937 H21        31.8560  -27.0520    2.7970 hc       184 PS      -0.016200
   2938 H22        32.6360  -28.4820    2.1070 hc       184 PS      -0.016200
   2939 H1         29.8960  -27.4520    1.3570 hc       184 PS      -0.005300
   2940 HD1        28.6360  -28.5920   -0.1930 ha       184 PS       0.124600
   2941 HE1        27.9960  -30.9420   -0.9730 ha       184 PS       0.105800
   2942 HZ         29.7460  -32.7120   -1.0630 ha       184 PS       0.124800
   2943 HE2        31.9560  -32.2920   -0.2330 ha       184 PS       0.105800
   2944 HD2        32.5860  -29.9520    0.6570 ha       184 PS       0.124600
   2945 C2         31.4960  -26.8620    0.0670 c3       185 PS       0.031000
   2946 C1         30.6960  -26.5920   -1.2230 c3       185 PS       0.000400
   2947 CG         31.0160  -25.1820   -1.6730 ca       185 PS       0.250900
   2948 CD1        30.0360  -24.3620   -2.1330 ca       185 PS      -0.270200
   2949 CE1        30.3160  -23.0420   -2.5930 ca       185 PS      -0.050500
   2950 CZ         31.6360  -22.5620   -2.5530 ca       185 PS      -0.188800
   2951 CE2        32.6460  -23.3920   -2.0330 ca       185 PS      -0.050500
   2952 CD2        32.3360  -24.6920   -1.6530 ca       185 PS      -0.270200
   2953 H21        31.5260  -25.9120    0.6170 hc       185 PS      -0.016200
   2954 H22        32.5360  -27.1320   -0.1430 hc       185 PS      -0.016200
   2955 H1         29.6260  -26.6220   -0.9830 hc       185 PS      -0.005300
   2956 HD1        29.0160  -24.7120   -2.0230 ha       185 PS       0.124600
   2957 HE1        29.5760  -22.3620   -3.0030 ha       185 PS       0.105800
   2958 HZ         31.9060  -21.6020   -2.9630 ha       185 PS       0.124800
   2959 HE2        33.6460  -22.9920   -1.9730 ha       185 PS       0.105800
   2960 HD2        33.1260  -25.3820   -1.3530 ha       185 PS       0.124600
   2961 C2         31.0960  -27.4820   -2.4630 c3       186 PS       0.031000
   2962 C1         30.2060  -27.2620   -3.7330 c3       186 PS       0.000400
   2963 CG         30.9560  -27.9720   -5.0030 ca       186 PS       0.250900
   2964 CD1        30.7860  -29.3620   -5.2330 ca       186 PS      -0.270200
   2965 CE1        31.3560  -29.9620   -6.3830 ca       186 PS      -0.050500
   2966 CZ         32.2160  -29.2220   -7.1930 ca       186 PS      -0.188800
   2967 CE2        32.4060  -27.8420   -7.0130 ca       186 PS      -0.050500
   2968 CD2        31.6960  -27.2220   -5.9130 ca       186 PS      -0.270200
   2969 H21        32.1460  -27.2120   -2.6330 hc       186 PS      -0.016200
   2970 H22        30.9860  -28.5520   -2.2630 hc       186 PS      -0.016200
   2971 H1         30.3260  -26.1820   -3.9330 hc       186 PS      -0.005300
   2972 HD1        30.1560  -29.9820   -4.6230 ha       186 PS       0.124600
   2973 HE1        31.0960  -31.0020   -6.5930 ha       186 PS       0.105800
   2974 HZ         32.7460  -29.7420   -7.9930 ha       186 PS       0.124800
   2975 HE2        33.0560  -27.2720   -7.6730 ha       186 PS       0.105800
   2976 HD2        31.6960  -26.1420   -5.8030 ha       186 PS       0.124600
   2977 C2         28.7560  -27.7220   -3.5130 c3       187 PS       0.031000
   2978 C1         27.6560  -26.7920   -4.0730 c3       187 PS       0.000400
   2979 CG         28.0760  -26.3620   -5.4830 ca       187 PS       0.250900
   2980 CD1        28.6260  -25.0720   -5.7230 ca       187 PS      -0.270200
   2981 CE1        29.1960  -24.7720   -6.9930 ca       187 PS      -0.050500
   2982 CZ         29.0660  -25.6920   -8.0730 ca       187 PS      -0.188800
   2983 CE2        28.4760  -26.9520   -7.8330 ca       187 PS      -0.050500
   2984 CD2        27.9360  -27.2620   -6.5630 ca       187 PS      -0.270200
   2985 H21        28.6460  -28.7120   -3.9830 hc       187 PS      -0.016200
   2986 H22        28.5060  -27.9720   -2.4730 hc       187 PS      -0.016200
   2987 H1         27.7060  -25.9020   -3.4330 hc       187 PS      -0.005300
   2988 HD1        28.7760  -24.4020   -4.8830 ha       187 PS       0.124600
   2989 HE1        29.7760  -23.8520   -7.0830 ha       187 PS       0.105800
   2990 HZ         29.5460  -25.5720   -9.0430 ha       187 PS       0.124800
   2991 HE2        28.3960  -27.6920   -8.6230 ha       187 PS       0.105800
   2992 HD2        27.4860  -28.2220   -6.3530 ha       187 PS       0.124600
   2993 C2         26.2060  -27.3220   -3.9630 c3       188 PS       0.031000
   2994 C1         25.0960  -26.4520   -4.6930 c3       188 PS       0.000400
   2995 CG         25.3860  -25.0020   -4.4530 ca       188 PS       0.250900
   2996 CD1        25.6760  -24.0920   -5.4830 ca       188 PS      -0.270200
   2997 CE1        26.0460  -22.7520   -5.3130 ca       188 PS      -0.050500
   2998 CZ         25.9460  -22.2920   -3.9830 ca       188 PS      -0.188800
   2999 CE2        25.7360  -23.1820   -2.9030 ca       188 PS      -0.050500
   3000 CD2        25.4660  -24.5220   -3.1130 ca       188 PS      -0.270200
   3001 H21        26.1160  -28.3720   -4.2830 hc       188 PS      -0.016200
   3002 H22        25.9560  -27.3620   -2.8930 hc       188 PS      -0.016200
   3003 H1         25.2160  -26.5220   -5.7830 hc       188 PS      -0.005300
   3004 HD1        25.6960  -24.4320   -6.5230 ha       188 PS       0.124600
   3005 HE1        26.3460  -22.1420   -6.1530 ha       188 PS       0.105800
   3006 HZ         26.0460  -21.2320   -3.7930 ha       188 PS       0.124800
   3007 HE2        25.7060  -22.8220   -1.8730 ha       188 PS       0.105800
   3008 HD2        25.2860  -25.1720   -2.2630 ha       188 PS       0.124600
   3009 C2         23.6760  -26.9020   -4.2530 c3       189 PS       0.031000
   3010 C1         22.6760  -27.0420   -5.4630 c3       189 PS       0.000400
   3011 CG         23.0560  -28.2220   -6.3430 ca       189 PS       0.250900
   3012 CD1        22.8360  -29.5320   -5.9330 ca       189 PS      -0.270200
   3013 CE1        23.4960  -30.6320   -6.4830 ca       189 PS      -0.050500
   3014 CZ         24.4360  -30.4620   -7.4730 ca       189 PS      -0.188800
   3015 CE2        24.7460  -29.1120   -7.8930 ca       189 PS      -0.050500
   3016 CD2        24.0260  -28.0320   -7.3730 ca       189 PS      -0.270200
   3017 H21        23.7760  -27.9020   -3.8130 hc       189 PS      -0.016200
   3018 H22        23.2760  -26.1420   -3.5830 hc       189 PS      -0.016200
   3019 H1         22.8460  -26.0920   -5.9930 hc       189 PS      -0.005300
   3020 HD1        22.0860  -29.7720   -5.1830 ha       189 PS       0.124600
   3021 HE1        23.1860  -31.6120   -6.1430 ha       189 PS       0.105800
   3022 HZ         24.9160  -31.3220   -7.9130 ha       189 PS       0.124800
   3023 HE2        25.5160  -28.8620   -8.6130 ha       189 PS       0.105800
   3024 HD2        24.3060  -27.0420   -7.7330 ha       189 PS       0.124600
   3025 C2         21.0960  -27.1520   -5.0030 c3       190 PS       0.031000
   3026 C1         20.0460  -27.0220   -6.1430 c3       190 PS       0.000400
   3027 CG         19.5560  -28.4620   -6.5330 ca       190 PS       0.250900
   3028 CD1        19.9060  -29.1420   -7.7130 ca       190 PS      -0.270200
   3029 CE1        19.1960  -30.2920   -8.1730 ca       190 PS      -0.050500
   3030 CZ         18.1960  -30.8720   -7.3930 ca       190 PS      -0.188800
   3031 CE2        17.9160  -30.2620   -6.1430 ca       190 PS      -0.050500
   3032 CD2        18.6260  -29.1520   -5.7330 ca       190 PS      -0.270200
   3033 H21        20.8360  -28.0320   -4.4130 hc       190 PS      -0.016200
   3034 H22        21.0360  -26.2720   -4.3430 hc       190 PS      -0.016200
   3035 H1         20.4860  -26.6820   -7.0930 hc       190 PS      -0.005300
   3036 HD1        20.6760  -28.7020   -8.3430 ha       190 PS       0.124600
   3037 HE1        19.3860  -30.7220   -9.1530 ha       190 PS       0.105800
   3038 HZ         17.5760  -31.6920   -7.7330 ha       190 PS       0.124800
   3039 HE2        17.0260  -30.5720   -5.6030 ha       190 PS       0.105800
   3040 HD2        18.3060  -28.6820   -4.8030 ha       190 PS       0.124600
   3041 C2         18.7660  -26.1620   -5.6730 c3       191 PS       0.031000
   3042 C1         18.6460  -24.7620   -6.4130 c3       191 PS       0.000400
   3043 CG         20.0360  -24.1220   -6.3530 ca       191 PS       0.250900
   3044 CD1        20.5060  -23.7820   -7.5930 ca       191 PS      -0.270200
   3045 CE1        21.7760  -23.1920   -7.7030 ca       191 PS      -0.050500
   3046 CZ         22.5360  -23.0220   -6.5630 ca       191 PS      -0.188800
   3047 CE2        22.0460  -23.3020   -5.3330 ca       191 PS      -0.050500
   3048 CD2        20.7760  -23.8820   -5.2230 ca       191 PS      -0.270200
   3049 H21        17.8560  -26.7220   -5.9530 hc       191 PS      -0.016200
   3050 H22        18.7560  -25.9020   -4.6030 hc       191 PS      -0.016200
   3051 H1         18.2560  -25.0020   -7.4030 hc       191 PS      -0.005300
   3052 HD1        19.8860  -24.0120   -8.4530 ha       191 PS       0.124600
   3053 HE1        22.1660  -22.9920   -8.7030 ha       191 PS       0.105800
   3054 HZ         23.5760  -22.7020   -6.6030 ha       191 PS       0.124800
   3055 HE2        22.6060  -23.0720   -4.4330 ha       191 PS       0.105800
   3056 HD2        20.3560  -24.0720   -4.2330 ha       191 PS       0.124600
   3057 C2         17.5560  -23.9020   -5.8030 c3       192 PS       0.031000
   3058 C1         17.1260  -22.6020   -6.4630 c3       192 PS       0.000400
   3059 CG         18.1560  -21.5120   -6.6330 ca       192 PS       0.250900
   3060 CD1        18.1760  -20.7420   -7.7130 ca       192 PS      -0.270200
   3061 CE1        19.1160  -19.7020   -7.9030 ca       192 PS      -0.050500
   3062 CZ         20.1060  -19.5120   -6.8830 ca       192 PS      -0.188800
   3063 CE2        20.0460  -20.3320   -5.7330 ca       192 PS      -0.050500
   3064 CD2        19.0760  -21.3420   -5.6130 ca       192 PS      -0.270200
   3065 H21        16.6960  -24.5720   -5.9230 hc       192 PS      -0.016200
   3066 H22        17.7160  -23.7720   -4.7230 hc       192 PS      -0.016200
   3067 H1         16.8560  -22.8720   -7.4930 hc       192 PS      -0.005300
   3068 HD1        17.3660  -20.8020   -8.4230 ha       192 PS       0.124600
   3069 HE1        18.9760  -19.1020   -8.7930 ha       192 PS       0.105800
   3070 HZ         20.9160  -18.7920   -6.9330 ha       192 PS       0.124800
   3071 HE2        20.7960  -20.1920   -4.9530 ha       192 PS       0.105800
   3072 HD2        19.1460  -22.0120   -4.7630 ha       192 PS       0.124600
   3073 C2         15.7760  -22.0620   -5.7530 c3       193 PS       0.031000
   3074 C1         15.2360  -20.6320   -6.1830 c3       193 PS       0.000400
   3075 CG         13.7360  -20.7220   -6.5730 ca       193 PS       0.250900
   3076 CD1        12.8660  -21.2920   -5.6830 ca       193 PS      -0.270200
   3077 CE1        11.5160  -21.5420   -6.0130 ca       193 PS      -0.050500
   3078 CZ         11.0360  -20.9120   -7.1530 ca       193 PS      -0.188800
   3079 CE2        11.8960  -20.2120   -8.0230 ca       193 PS      -0.050500
   3080 CD2        13.2560  -20.1620   -7.7530 ca       193 PS      -0.270200
   3081 H21        15.0160  -22.8220   -5.9730 hc       193 PS      -0.016200
   3082 H22        15.9160  -22.0820   -4.6730 hc       193 PS      -0.016200
   3083 H1         15.7260  -20.2620   -7.0930 hc       193 PS      -0.005300
   3084 HD1        13.1960  -21.5920   -4.6930 ha       193 PS       0.124600
   3085 HE1        10.7560  -21.9420   -5.3430 ha       193 PS       0.105800
   3086 HZ          9.9560  -20.8920   -7.3230 ha       193 PS       0.124800
   3087 HE2        11.5060  -19.7420   -8.9230 ha       193 PS       0.105800
   3088 HD2        13.9760  -19.7120   -8.4330 ha       193 PS       0.124600
   3089 C2         15.4560  -19.6720   -4.9230 c3       194 PS       0.031000
   3090 C1         15.0960  -18.1920   -5.1030 c3       194 PS       0.000400
   3091 CG         16.0960  -17.5520   -6.0530 ca       194 PS       0.250900
   3092 CD1        17.4160  -17.5020   -5.7230 ca       194 PS      -0.270200
   3093 CE1        18.3860  -16.8820   -6.4730 ca       194 PS      -0.050500
   3094 CZ         17.9360  -16.4020   -7.7830 ca       194 PS      -0.188800
   3095 CE2        16.6060  -16.4320   -8.1130 ca       194 PS      -0.050500
   3096 CD2        15.7060  -17.0520   -7.2630 ca       194 PS      -0.270200
   3097 H21        14.7660  -19.9820   -4.1330 hc       194 PS      -0.016200
   3098 H22        16.4460  -19.7420   -4.4530 hc       194 PS      -0.016200
   3099 H1         14.1360  -18.1420   -5.6530 hc       194 PS      -0.005300
   3100 HD1        17.8060  -18.0020   -4.8430 ha       194 PS       0.124600
   3101 HE1        19.4260  -16.8620   -6.1530 ha       194 PS       0.105800
   3102 HZ         18.6560  -15.9220   -8.4330 ha       194 PS       0.124800
   3103 HE2        16.2360  -16.0920   -9.0830 ha       194 PS       0.105800
   3104 HD2        14.6560  -17.0120   -7.5530 ha       194 PS       0.124600
   3105 C2         14.9960  -17.4720   -3.7330 c3       195 PS       0.031000
   3106 C1         13.9560  -16.2520   -3.8930 c3       195 PS       0.000400
   3107 CG         14.5260  -15.1820   -4.8030 ca       195 PS       0.250900
   3108 CD1        15.7660  -14.5020   -4.5930 ca       195 PS      -0.270200
   3109 CE1        16.2560  -13.5620   -5.5230 ca       195 PS      -0.050500
   3110 CZ         15.4960  -13.2820   -6.6930 ca       195 PS      -0.188800
   3111 CE2        14.2060  -13.7920   -6.8830 ca       195 PS      -0.050500
   3112 CD2        13.7760  -14.7820   -5.9730 ca       195 PS      -0.270200
   3113 H21        14.5360  -18.0820   -2.9530 hc       195 PS      -0.016200
   3114 H22        15.9960  -17.1020   -3.4530 hc       195 PS      -0.016200
   3115 H1         12.9960  -16.6320   -4.2730 hc       195 PS      -0.005300
   3116 HD1        16.3760  -14.9020   -3.7830 ha       195 PS       0.124600
   3117 HE1        17.2160  -13.0620   -5.4230 ha       195 PS       0.105800
   3118 HZ         15.8660  -12.5720   -7.4330 ha       195 PS       0.124800
   3119 HE2        13.5760  -13.4420   -7.6930 ha       195 PS       0.105800
   3120 HD2        12.7760  -15.1820   -6.1430 ha       195 PS       0.124600
   3121 C2         13.7060  -15.6720   -2.4730 c3       196 PS       0.031000
   3122 C1         12.7960  -14.4520   -2.4830 c3       196 PS       0.000400
   3123 CG         12.8160  -13.8220   -1.1030 ca       196 PS       0.250900
   3124 CD1        11.8760  -14.2520   -0.1030 ca       196 PS      -0.270200
   3125 CE1        12.0860  -13.7720    1.2070 ca       196 PS      -0.050500
   3126 CZ         13.0960  -12.9220    1.5170 ca       196 PS      -0.188800
   3127 CE2        14.0760  -12.6420    0.5770 ca       196 PS      -0.050500
   3128 CD2        13.8760  -12.9720   -0.7630 ca       196 PS      -0.270200
   3129 H21        13.1860  -16.3820   -1.8230 hc       196 PS      -0.016200
   3130 H22        14.6660  -15.4020   -2.0030 hc       196 PS      -0.016200
   3131 H1         13.2460  -13.7220   -3.1730 hc       196 PS      -0.005300
   3132 HD1        11.0460  -14.9220   -0.3230 ha       196 PS       0.124600
   3133 HE1        11.3760  -13.9720    2.0070 ha       196 PS       0.105800
   3134 HZ         13.1760  -12.5520    2.5270 ha       196 PS       0.124800
   3135 HE2        14.8560  -11.9420    0.8670 ha       196 PS       0.105800
   3136 HD2        14.6260  -12.5920   -1.4530 ha       196 PS       0.124600
   3137 C2         11.2860  -14.7020   -2.9330 c3       197 PS       0.031000
   3138 C1         10.6060  -13.3120   -3.0430 c3       197 PS       0.000400
   3139 CG         11.0660  -12.3820   -4.2030 ca       197 PS       0.250900
   3140 CD1        11.9960  -11.3920   -4.1130 ca       197 PS      -0.270200
   3141 CE1        12.3760  -10.7620   -5.3030 ca       197 PS      -0.050500
   3142 CZ         11.8160  -11.0720   -6.5230 ca       197 PS      -0.188800
   3143 CE2        10.8960  -12.1420   -6.6430 ca       197 PS      -0.050500
   3144 CD2        10.5760  -12.8220   -5.4730 ca       197 PS      -0.270200
   3145 H21        11.3560  -15.1220   -3.9430 hc       197 PS      -0.016200
   3146 H22        10.8260  -15.4420   -2.2630 hc       197 PS      -0.016200
   3147 H1         10.8560  -12.7820   -2.1030 hc       197 PS      -0.005300
   3148 HD1        12.2660  -11.0320   -3.1230 ha       197 PS       0.124600
   3149 HE1        12.9860   -9.8620   -5.3030 ha       197 PS       0.105800
   3150 HZ         12.0560  -10.4820   -7.3930 ha       197 PS       0.124800
   3151 HE2        10.5760  -12.4420   -7.6330 ha       197 PS       0.105800
   3152 HD2         9.9960  -13.7420   -5.5730 ha       197 PS       0.124600
   3153 C2          9.0660  -13.5520   -2.8230 c3       198 PS       0.031000
   3154 C1          8.2460  -12.2420   -2.7230 c3       198 PS       0.000400
   3155 CG          8.8660  -11.2720   -1.7030 ca       198 PS       0.250900
   3156 CD1         9.4060  -11.6620   -0.4530 ca       198 PS      -0.270200
   3157 CE1        10.1760  -10.6920    0.2970 ca       198 PS      -0.050500
   3158 CZ         10.3960   -9.3720   -0.1930 ca       198 PS      -0.188800
   3159 CE2         9.7560   -8.9620   -1.3830 ca       198 PS      -0.050500
   3160 CD2         9.1260   -9.9320   -2.1830 ca       198 PS      -0.270200
   3161 H21         8.5660  -14.3220   -3.4230 hc       198 PS      -0.016200
   3162 H22         9.0160  -14.0720   -1.8530 hc       198 PS      -0.016200
   3163 H1          8.3960  -11.8020   -3.7130 hc       198 PS      -0.005300
   3164 HD1         9.2360  -12.6420   -0.0230 ha       198 PS       0.124600
   3165 HE1        10.6860  -11.0220    1.1970 ha       198 PS       0.105800
   3166 HZ         11.0860   -8.6720    0.2570 ha       198 PS       0.124800
   3167 HE2         9.9960   -8.0120   -1.8630 ha       198 PS       0.105800
   3168 HD2         8.7860   -9.6820   -3.1830 ha       198 PS       0.124600
   3169 C2          6.7760  -12.5920   -2.4930 c3       199 PS       0.031000
   3170 C1          5.8860  -13.0920   -3.7330 c3       199 PS       0.000400
   3171 CG          6.1060  -12.1720   -4.9830 ca       199 PS       0.250900
   3172 CD1         5.6260  -10.8420   -4.9330 ca       199 PS      -0.270200
   3173 CE1         5.6960  -10.0820   -6.1030 ca       199 PS      -0.050500
   3174 CZ          6.2560  -10.5720   -7.2630 ca       199 PS      -0.188800
   3175 CE2         6.7160  -11.9020   -7.3430 ca       199 PS      -0.050500
   3176 CD2         6.5760  -12.7120   -6.1930 ca       199 PS      -0.270200
   3177 H21         6.6760  -13.2320   -1.6130 hc       199 PS      -0.016200
   3178 H22         6.2660  -11.6720   -2.1730 hc       199 PS      -0.016200
   3179 H1          6.2460  -14.0720   -4.0730 hc       199 PS      -0.005300
   3180 HD1         5.3060  -10.3620   -4.0130 ha       199 PS       0.124600
   3181 HE1         5.2460   -9.0920   -6.0930 ha       199 PS       0.105800
   3182 HZ          6.1960   -9.9220   -8.1330 ha       199 PS       0.124800
   3183 HE2         7.0860  -12.4220   -8.2130 ha       199 PS       0.105800
   3184 HD2         6.6460  -13.7820   -6.3730 ha       199 PS       0.124600
   3185 C2          4.4160  -13.2220   -3.2930 c3       200 PS       0.031000
   3186 C1          3.3360  -13.4920   -4.4730 c3       200 PS       0.000400
   3187 CG          3.8360  -14.5320   -5.4430 ca       200 PS       0.250900
   3188 CD1         4.0160  -14.1920   -6.7530 ca       200 PS      -0.270200
   3189 CE1         4.1060  -15.1620   -7.7530 ca       200 PS      -0.050500
   3190 CZ          4.3260  -16.5620   -7.3830 ca       200 PS      -0.188800
   3191 CE2         4.3860  -16.9020   -6.0430 ca       200 PS      -0.050500
   3192 CD2         4.0960  -15.8520   -5.0830 ca       200 PS      -0.270200
   3193 H21         4.4160  -14.0120   -2.5230 hc       200 PS      -0.016200
   3194 H22         4.1660  -12.3220   -2.7230 hc       200 PS      -0.016200
   3195 H1          3.1660  -12.5320   -4.9830 hc       200 PS      -0.005300
   3196 HD1         3.8560  -13.1520   -7.0230 ha       200 PS       0.124600
   3197 HE1         4.0260  -14.8220   -8.7830 ha       200 PS       0.105800
   3198 HZ          4.5660  -17.2820   -8.1630 ha       200 PS       0.124800
   3199 HE2         4.6260  -17.9120   -5.7230 ha       200 PS       0.105800
   3200 HD2         4.0860  -16.1220   -4.0230 ha       200 PS       0.124600
   3201 C2          2.0060  -13.8820   -3.7630 c3       201 PS       0.031000
   3202 C1          0.7660  -14.1620   -4.7430 c3       201 PS       0.000400
   3203 CG          0.7260  -12.9420   -5.7830 ca       201 PS       0.250900
   3204 CD1         0.8560  -13.3220   -7.1030 ca       201 PS      -0.270200
   3205 CE1         0.9160  -12.3120   -8.0830 ca       201 PS      -0.050500
   3206 CZ          0.8360  -11.0020   -7.7230 ca       201 PS      -0.188800
   3207 CE2         0.5760  -10.6320   -6.4230 ca       201 PS      -0.050500
   3208 CD2         0.4160  -11.6320   -5.4730 ca       201 PS      -0.270200
   3209 H21         2.0260  -14.6720   -3.0130 hc       201 PS      -0.016200
   3210 H22         1.8260  -12.9920   -3.1530 hc       201 PS      -0.016200
   3211 H1          1.0360  -15.1520   -5.1330 hc       201 PS      -0.005300
   3212 HD1         0.9560  -14.3620   -7.4030 ha       201 PS       0.124600
   3213 HE1         0.9460  -12.6420   -9.1230 ha       201 PS       0.105800
   3214 HZ          0.8860  -10.2420   -8.4930 ha       201 PS       0.124800
   3215 HE2         0.5660   -9.6020   -6.1130 ha       201 PS       0.105800
   3216 HD2         0.1860  -11.4320   -4.4230 ha       201 PS       0.124600
   3217 C2         -0.6140  -14.2020   -3.9430 c3       202 PS       0.031000
   3218 C1         -1.7740  -14.4620   -4.9230 c3       202 PS       0.000400
   3219 CG         -1.5440  -15.7020   -5.8330 ca       202 PS       0.250900
   3220 CD1        -1.6140  -15.5820   -7.2330 ca       202 PS      -0.270200
   3221 CE1        -1.6740  -16.7420   -8.0230 ca       202 PS      -0.050500
   3222 CZ         -1.4140  -17.9820   -7.4530 ca       202 PS      -0.188800
   3223 CE2        -1.1340  -18.1320   -6.0930 ca       202 PS      -0.050500
   3224 CD2        -1.3440  -16.9620   -5.2430 ca       202 PS      -0.270200
   3225 H21        -0.5240  -14.9220   -3.1230 hc       202 PS      -0.016200
   3226 H22        -0.7840  -13.2120   -3.5130 hc       202 PS      -0.016200
   3227 H1         -1.8940  -13.5620   -5.5530 hc       202 PS      -0.005300
   3228 HD1        -1.7740  -14.5920   -7.6430 ha       202 PS       0.124600
   3229 HE1        -1.8940  -16.6520   -9.0830 ha       202 PS       0.105800
   3230 HZ         -1.3440  -18.8820   -8.0630 ha       202 PS       0.124800
   3231 HE2        -1.0340  -19.1520   -5.7230 ha       202 PS       0.105800
   3232 HD2        -1.4540  -17.0120   -4.1730 ha       202 PS       0.124600
   3233 C2         -3.0940  -14.4620   -4.0830 c3       203 PS       0.031000
   3234 C1         -4.3840  -14.6820   -4.9230 c3       203 PS       0.000400
   3235 CG         -4.5340  -13.6320   -5.9330 ca       203 PS       0.250900
   3236 CD1        -4.5340  -13.8920   -7.2930 ca       203 PS      -0.270200
   3237 CE1        -4.6140  -12.8520   -8.2130 ca       203 PS      -0.050500
   3238 CZ         -4.6340  -11.5220   -7.7830 ca       203 PS      -0.188800
   3239 CE2        -4.7440  -11.2120   -6.4530 ca       203 PS      -0.050500
   3240 CD2        -4.6640  -12.2520   -5.5230 ca       203 PS      -0.270200
   3241 H21        -3.0440  -15.3620   -3.4630 hc       203 PS      -0.016200
   3242 H22        -3.1540  -13.5720   -3.4530 hc       203 PS      -0.016200
   3243 H1         -4.2940  -15.6320   -5.4730 hc       203 PS      -0.005300
   3244 HD1        -4.3840  -14.9320   -7.5830 ha       203 PS       0.124600
   3245 HE1        -4.6040  -13.1520   -9.2530 ha       203 PS       0.105800
   3246 HZ         -4.7240  -10.7820   -8.5730 ha       203 PS       0.124800
   3247 HE2        -4.8640  -10.1920   -6.0930 ha       203 PS       0.105800
   3248 HD2        -4.6940  -12.0420   -4.4530 ha       203 PS       0.124600
   3249 C2         -5.6040  -14.9920   -4.0830 c3       204 PS       0.031000
   3250 C1         -6.8440  -15.3720   -4.8930 c3       204 PS       0.000400
   3251 CG         -7.4240  -14.1320   -5.6230 ca       204 PS       0.250900
   3252 CD1        -7.7140  -14.2720   -7.0030 ca       204 PS      -0.270200
   3253 CE1        -8.2540  -13.2120   -7.6930 ca       204 PS      -0.050500
   3254 CZ         -8.4540  -11.9620   -7.0930 ca       204 PS      -0.188800
   3255 CE2        -8.3040  -11.8520   -5.7030 ca       204 PS      -0.050500
   3256 CD2        -7.7540  -12.8920   -4.9630 ca       204 PS      -0.270200
   3257 H21        -5.2840  -15.7720   -3.3830 hc       204 PS      -0.016200
   3258 H22        -5.9440  -14.1820   -3.4230 hc       204 PS      -0.016200
   3259 H1         -6.4940  -16.1220   -5.6130 hc       204 PS      -0.005300
   3260 HD1        -7.5540  -15.2020   -7.5230 ha       204 PS       0.124600
   3261 HE1        -8.4640  -13.3020   -8.7530 ha       204 PS       0.105800
   3262 HZ         -8.9240  -11.1120   -7.5730 ha       204 PS       0.124800
   3263 HE2        -8.5240  -10.9320   -5.1630 ha       204 PS       0.105800
   3264 HD2        -7.6740  -12.8020   -3.8830 ha       204 PS       0.124600
   3265 C2         -7.9240  -15.9420   -3.9030 c3       205 PS       0.031000
   3266 C1         -8.7540  -17.1320   -4.4230 c3       205 PS       0.000400
   3267 CG         -9.5040  -16.9520   -5.7130 ca       205 PS       0.250900
   3268 CD1        -9.5040  -17.8520   -6.7930 ca       205 PS      -0.270200
   3269 CE1       -10.2940  -17.6720   -7.9730 ca       205 PS      -0.050500
   3270 CZ        -11.0840  -16.5220   -7.9930 ca       205 PS      -0.188800
   3271 CE2       -11.0640  -15.5420   -7.0330 ca       205 PS      -0.050500
   3272 CD2       -10.3240  -15.7920   -5.8130 ca       205 PS      -0.270200
   3273 H21        -7.4340  -16.3320   -3.0030 hc       205 PS      -0.016200
   3274 H22        -8.6740  -15.1920   -3.6330 hc       205 PS      -0.016200
   3275 H1         -8.0340  -17.9520   -4.5530 hc       205 PS      -0.005300
   3276 HD1        -9.0340  -18.8320   -6.8230 ha       205 PS       0.124600
   3277 HE1       -10.2940  -18.4720   -8.7030 ha       205 PS       0.105800
   3278 HZ        -11.8040  -16.3520   -8.7930 ha       205 PS       0.124800
   3279 HE2       -11.7140  -14.6620   -7.0630 ha       205 PS       0.105800
   3280 HD2       -10.3340  -15.1120   -4.9730 ha       205 PS       0.124600
   3281 C2         -9.6840  -17.5320   -3.2430 c3       206 PS       0.031000
   3282 C1        -10.4940  -18.8720   -3.5630 c3       206 PS       0.000400
   3283 CG        -11.5840  -19.1320   -2.5730 ca       206 PS       0.250900
   3284 CD1       -12.8540  -19.5420   -3.0230 ca       206 PS      -0.270200
   3285 CE1       -13.8540  -19.8720   -2.1030 ca       206 PS      -0.050500
   3286 CZ        -13.5840  -19.9220   -0.7530 ca       206 PS      -0.188800
   3287 CE2       -12.2940  -19.6920   -0.2830 ca       206 PS      -0.050500
   3288 CD2       -11.3740  -19.2520   -1.1830 ca       206 PS      -0.270200
   3289 H21        -9.0640  -17.7520   -2.3630 hc       206 PS      -0.016200
   3290 H22       -10.3840  -16.7720   -2.8930 hc       206 PS      -0.016200
   3291 H1        -10.9140  -18.8320   -4.5730 hc       206 PS      -0.005300
   3292 HD1       -13.0540  -19.5420   -4.0930 ha       206 PS       0.124600
   3293 HE1       -14.8040  -20.2020   -2.4930 ha       206 PS       0.105800
   3294 HZ        -14.3840  -20.2020   -0.0730 ha       206 PS       0.124800
   3295 HE2       -12.0340  -19.7120    0.7670 ha       206 PS       0.105800
   3296 HD2       -10.4340  -18.7920   -0.8630 ha       206 PS       0.124600
   3297 C2         -9.5340  -20.1220   -3.6030 c3       207 PS       0.031000
   3298 C1        -10.2040  -21.4920   -3.8830 c3       207 PS       0.000400
   3299 CG        -11.0640  -21.5420   -5.1230 ca       207 PS       0.250900
   3300 CD1       -10.3740  -21.2720   -6.3530 ca       207 PS      -0.270200
   3301 CE1       -11.0140  -21.3320   -7.5430 ca       207 PS      -0.050500
   3302 CZ        -12.3040  -21.6720   -7.5330 ca       207 PS      -0.188800
   3303 CE2       -13.0740  -21.8520   -6.3630 ca       207 PS      -0.050500
   3304 CD2       -12.4040  -21.8120   -5.1630 ca       207 PS      -0.270200
   3305 H21        -8.6740  -19.9920   -4.2730 hc       207 PS      -0.016200
   3306 H22        -9.0940  -20.2220   -2.6030 hc       207 PS      -0.016200
   3307 H1        -10.9440  -21.6720   -3.1030 hc       207 PS      -0.005300
   3308 HD1        -9.3540  -20.9020   -6.3230 ha       207 PS       0.124600
   3309 HE1       -10.4040  -21.1520   -8.4230 ha       207 PS       0.105800
   3310 HZ        -12.8340  -21.8620   -8.4630 ha       207 PS       0.124800
   3311 HE2       -14.1440  -21.9720   -6.4630 ha       207 PS       0.105800
   3312 HD2       -12.8640  -21.9020   -4.1930 ha       207 PS       0.124600
   3313 C2         -9.2640  -22.7220   -3.8330 c3       208 PS       0.031000
   3314 C1         -8.3040  -22.9620   -2.6330 c3       208 PS       0.000400
   3315 CG         -9.1140  -22.8720   -1.2830 ca       208 PS       0.250900
   3316 CD1        -8.7640  -22.0020   -0.2330 ca       208 PS      -0.270200
   3317 CE1        -9.5440  -21.9120    0.9170 ca       208 PS      -0.050500
   3318 CZ        -10.7440  -22.7120    1.0670 ca       208 PS      -0.188800
   3319 CE2       -11.0140  -23.5820    0.0370 ca       208 PS      -0.050500
   3320 CD2       -10.1540  -23.7520   -1.0430 ca       208 PS      -0.270200
   3321 H21        -9.8840  -23.6120   -3.9630 hc       208 PS      -0.016200
   3322 H22        -8.5540  -22.7020   -4.6730 hc       208 PS      -0.016200
   3323 H1         -7.5440  -22.1720   -2.6330 hc       208 PS      -0.005300
   3324 HD1        -7.9340  -21.3120   -0.3830 ha       208 PS       0.124600
   3325 HE1        -9.2340  -21.2920    1.7470 ha       208 PS       0.105800
   3326 HZ        -11.4140  -22.5120    1.8970 ha       208 PS       0.124800
   3327 HE2       -11.7440  -24.3720    0.1570 ha       208 PS       0.105800
   3328 HD2       -10.3040  -24.5520   -1.7630 ha       208 PS       0.124600
   3329 C2         -7.6540  -24.4520   -2.8730 c3       209 PS       0.031000
   3330 C1         -6.3740  -24.5920   -2.1430 c3       209 PS       0.000400
   3331 CG         -6.4040  -24.3220   -0.6430 ca       209 PS       0.250900
   3332 CD1        -5.5240  -23.3920   -0.0830 ca       209 PS      -0.270200
   3333 CE1        -5.4840  -23.1820    1.2970 ca       209 PS      -0.050500
   3334 CZ         -6.4240  -23.7220    2.1270 ca       209 PS      -0.188800
   3335 CE2        -7.3040  -24.6820    1.5870 ca       209 PS      -0.050500
   3336 CD2        -7.3140  -24.9120    0.2170 ca       209 PS      -0.270200
   3337 H21        -8.3740  -25.2520   -2.6430 hc       209 PS      -0.016200
   3338 H22        -7.4040  -24.5620   -3.9330 hc       209 PS      -0.016200
   3339 H1         -5.7140  -23.8420   -2.6030 hc       209 PS      -0.005300
   3340 HD1        -4.8840  -22.8620   -0.7830 ha       209 PS       0.124600
   3341 HE1        -4.8240  -22.4520    1.7570 ha       209 PS       0.105800
   3342 HZ         -6.4040  -23.4920    3.1970 ha       209 PS       0.124800
   3343 HE2        -8.1040  -25.0620    2.2070 ha       209 PS       0.105800
   3344 HD2        -8.0540  -25.5720   -0.2230 ha       209 PS       0.124600
   3345 C2         -5.7540  -26.0320   -2.3730 c3       210 PS       0.031000
   3346 C1         -4.1740  -26.1320   -2.1730 c3       210 PS       0.000400
   3347 CG         -3.5740  -25.8120   -0.7830 ca       210 PS       0.250900
   3348 CD1        -2.6440  -24.7820   -0.7230 ca       210 PS      -0.270200
   3349 CE1        -2.1140  -24.3720    0.5470 ca       210 PS      -0.050500
   3350 CZ         -2.4940  -25.0620    1.6970 ca       210 PS      -0.188800
   3351 CE2        -3.3840  -26.1120    1.5370 ca       210 PS      -0.050500
   3352 CD2        -3.9740  -26.4920    0.3470 ca       210 PS      -0.270200
   3353 H21        -6.1740  -26.8720   -1.8030 hc       210 PS      -0.016200
   3354 H22        -5.8840  -26.3220   -3.4230 hc       210 PS      -0.016200
   3355 H1         -3.6640  -27.0420   -2.5030 hc       210 PS      -0.005300
   3356 HD1        -2.3840  -24.3020   -1.6630 ha       210 PS       0.124600
   3357 HE1        -1.4640  -23.5120    0.6470 ha       210 PS       0.105800
   3358 HZ         -2.0640  -24.8020    2.6570 ha       210 PS       0.124800
   3359 HE2        -3.6840  -26.7220    2.3770 ha       210 PS       0.105800
   3360 HD2        -4.6340  -27.3520    0.3670 ha       210 PS       0.124600
   3361 C2        -11.7540  -22.7320    7.5870 c3       211 PS       0.031000
   3362 C1        -12.7340  -23.0820    6.4370 c3       211 PS       0.000400
   3363 CG        -12.8940  -21.9220    5.3470 ca       211 PS       0.250900
   3364 CD1       -12.3240  -20.6520    5.7270 ca       211 PS      -0.270200
   3365 CE1       -12.3440  -19.5920    4.8170 ca       211 PS      -0.050500
   3366 CZ        -13.0040  -19.7520    3.5970 ca       211 PS      -0.188800
   3367 CE2       -13.5040  -21.0020    3.2070 ca       211 PS      -0.050500
   3368 CD2       -13.3640  -22.0720    4.0970 ca       211 PS      -0.270200
   3369 H21       -10.7240  -22.4720    7.3370 hc       211 PS      -0.016200
   3370 H22       -11.7840  -23.5120    8.3670 hc       211 PS      -0.016200
   3371 H1        -13.7340  -23.1220    6.8670 hc       211 PS      -0.005300
   3372 HD1       -11.8940  -20.4720    6.7070 ha       211 PS       0.124600
   3373 HE1       -11.9340  -18.6120    5.0170 ha       211 PS       0.105800
   3374 HZ        -13.1840  -18.9520    2.8770 ha       211 PS       0.124800
   3375 HE2       -13.7740  -21.1720    2.1670 ha       211 PS       0.105800
   3376 HD2       -13.6940  -23.0620    3.7970 ha       211 PS       0.124600
   3377 C2        -12.3940  -24.5520    5.8670 c3       212 PS       0.031000
   3378 C1        -11.3340  -24.6120    4.7470 c3       212 PS       0.000400
   3379 CG         -9.9540  -24.1320    5.3970 ca       212 PS       0.250900
   3380 CD1        -9.1740  -23.0220    4.9470 ca       212 PS      -0.270200
   3381 CE1        -7.8840  -22.6720    5.4770 ca       212 PS      -0.050500
   3382 CZ         -7.4140  -23.4320    6.5570 ca       212 PS      -0.188800
   3383 CE2        -8.1840  -24.4920    7.0670 ca       212 PS      -0.050500
   3384 CD2        -9.4340  -24.8420    6.4870 ca       212 PS      -0.270200
   3385 H21       -12.2240  -25.1920    6.7370 hc       212 PS      -0.016200
   3386 H22       -13.3240  -24.8320    5.3570 hc       212 PS      -0.016200
   3387 H1        -11.6040  -23.9620    3.9070 hc       212 PS      -0.005300
   3388 HD1        -9.5340  -22.3920    4.1470 ha       212 PS       0.124600
   3389 HE1        -7.2540  -21.8820    5.0770 ha       212 PS       0.105800
   3390 HZ         -6.4440  -23.2120    6.9770 ha       212 PS       0.124800
   3391 HE2        -7.8240  -25.0920    7.8970 ha       212 PS       0.105800
   3392 HD2        -9.9740  -25.6520    6.9870 ha       212 PS       0.124600
   3393 C2        -11.2340  -26.0920    4.1570 c3       213 PS       0.031000
   3394 C1        -12.0040  -26.4320    2.8070 c3       213 PS       0.000400
   3395 CG        -11.5340  -27.7920    2.1670 ca       213 PS       0.250900
   3396 CD1       -10.4640  -27.7620    1.2870 ca       213 PS      -0.270200
   3397 CE1        -9.9140  -28.9220    0.7970 ca       213 PS      -0.050500
   3398 CZ        -10.3540  -30.2120    1.3270 ca       213 PS      -0.188800
   3399 CE2       -11.5040  -30.2520    2.1170 ca       213 PS      -0.050500
   3400 CD2       -12.0240  -29.0320    2.6570 ca       213 PS      -0.270200
   3401 H21       -10.1640  -26.3320    4.0170 hc       213 PS      -0.016200
   3402 H22       -11.5740  -26.7820    4.9370 hc       213 PS      -0.016200
   3403 H1        -11.7440  -25.6820    2.0370 hc       213 PS      -0.005300
   3404 HD1        -9.9440  -26.8720    0.9570 ha       213 PS       0.124600
   3405 HE1        -9.0740  -28.8720    0.1170 ha       213 PS       0.105800
   3406 HZ         -9.8840  -31.1620    1.0970 ha       213 PS       0.124800
   3407 HE2       -11.9440  -31.1620    2.5270 ha       213 PS       0.105800
   3408 HD2       -12.8640  -29.0020    3.3470 ha       213 PS       0.124600
   3409 C2        -13.5440  -26.3520    2.9570 c3       214 PS       0.031000
   3410 C1        -14.3640  -26.7920    1.6570 c3       214 PS       0.000400
   3411 CG        -14.2640  -25.7720    0.5370 ca       214 PS       0.250900
   3412 CD1       -13.6340  -26.1420   -0.6830 ca       214 PS      -0.270200
   3413 CE1       -13.5540  -25.2820   -1.7330 ca       214 PS      -0.050500
   3414 CZ        -14.1440  -23.9820   -1.6930 ca       214 PS      -0.188800
   3415 CE2       -14.6140  -23.5920   -0.4830 ca       214 PS      -0.050500
   3416 CD2       -14.7040  -24.4420    0.6570 ca       214 PS      -0.270200
   3417 H21       -14.0140  -26.9320    3.7570 hc       214 PS      -0.016200
   3418 H22       -13.7840  -25.3320    3.2870 hc       214 PS      -0.016200
   3419 H1        -14.0540  -27.8020    1.3370 hc       214 PS      -0.005300
   3420 HD1       -13.3540  -27.1820   -0.8130 ha       214 PS       0.124600
   3421 HE1       -13.2540  -25.7320   -2.6730 ha       214 PS       0.105800
   3422 HZ        -14.3040  -23.3420   -2.5430 ha       214 PS       0.124800
   3423 HE2       -15.2040  -22.7020   -0.6430 ha       214 PS       0.105800
   3424 HD2       -15.3340  -24.1020    1.4670 ha       214 PS       0.124600
   3425 C2        -15.8140  -26.8720    2.1270 c3       215 PS       0.031000
   3426 C1        -16.8340  -27.4220    1.1170 c3       215 PS       0.000400
   3427 CG        -16.7940  -28.9520    1.1870 ca       215 PS       0.250900
   3428 CD1       -16.3240  -29.6420    0.0270 ca       215 PS      -0.270200
   3429 CE1       -16.1240  -31.0520    0.0770 ca       215 PS      -0.050500
   3430 CZ        -16.4040  -31.7320    1.2770 ca       215 PS      -0.188800
   3431 CE2       -16.9440  -31.0720    2.3370 ca       215 PS      -0.050500
   3432 CD2       -17.1340  -29.7120    2.3370 ca       215 PS      -0.270200
   3433 H21       -15.8840  -27.4920    3.0370 hc       215 PS      -0.016200
   3434 H22       -16.0840  -25.9120    2.5770 hc       215 PS      -0.016200
   3435 H1        -16.5940  -27.1820    0.0770 hc       215 PS      -0.005300
   3436 HD1       -16.0940  -29.0220   -0.8330 ha       215 PS       0.124600
   3437 HE1       -15.6840  -31.5520   -0.7730 ha       215 PS       0.105800
   3438 HZ        -16.2040  -32.7920    1.3570 ha       215 PS       0.124800
   3439 HE2       -17.2040  -31.7720    3.1270 ha       215 PS       0.105800
   3440 HD2       -17.6440  -29.1220    3.1070 ha       215 PS       0.124600
   3441 C2        -18.2040  -26.6820    1.4170 c3       216 PS       0.031000
   3442 C1        -19.3340  -27.0620    0.4970 c3       216 PS       0.000400
   3443 CG        -19.8640  -28.4820    0.6370 ca       216 PS       0.250900
   3444 CD1       -19.7140  -29.4620   -0.3730 ca       216 PS      -0.270200
   3445 CE1       -20.1240  -30.7620   -0.2230 ca       216 PS      -0.050500
   3446 CZ        -20.7940  -31.1020    0.9370 ca       216 PS      -0.188800
   3447 CE2       -20.9940  -30.2020    1.9270 ca       216 PS      -0.050500
   3448 CD2       -20.5640  -28.8920    1.7970 ca       216 PS      -0.270200
   3449 H21       -18.4140  -26.7920    2.4870 hc       216 PS      -0.016200
   3450 H22       -18.0440  -25.6120    1.2170 hc       216 PS      -0.016200
   3451 H1        -19.0140  -26.9220   -0.5430 hc       216 PS      -0.005300
   3452 HD1       -19.1740  -29.1120   -1.2530 ha       216 PS       0.124600
   3453 HE1       -19.8940  -31.5320   -0.9530 ha       216 PS       0.105800
   3454 HZ        -21.2340  -32.0820    1.1170 ha       216 PS       0.124800
   3455 HE2       -21.6040  -30.4020    2.7970 ha       216 PS       0.105800
   3456 HD2       -20.7440  -28.1420    2.5670 ha       216 PS       0.124600
   3457 C2        -20.5240  -26.1320    0.6970 c3       217 PS       0.031000
   3458 C1        -21.1640  -25.6120   -0.6130 c3       217 PS       0.000400
   3459 CG        -21.5740  -26.7820   -1.5430 ca       217 PS       0.250900
   3460 CD1       -22.6440  -27.6720   -1.1530 ca       217 PS      -0.270200
   3461 CE1       -23.0240  -28.7520   -1.9730 ca       217 PS      -0.050500
   3462 CZ        -22.3340  -28.9520   -3.1930 ca       217 PS      -0.188800
   3463 CE2       -21.3440  -28.0720   -3.6030 ca       217 PS      -0.050500
   3464 CD2       -20.9240  -27.0220   -2.7830 ca       217 PS      -0.270200
   3465 H21       -21.3040  -26.6520    1.2670 hc       217 PS      -0.016200
   3466 H22       -20.2140  -25.2720    1.2970 hc       217 PS      -0.016200
   3467 H1        -20.3640  -24.9920   -1.0430 hc       217 PS      -0.005300
   3468 HD1       -23.1140  -27.5320   -0.1930 ha       217 PS       0.124600
   3469 HE1       -23.7440  -29.4620   -1.5830 ha       217 PS       0.105800
   3470 HZ        -22.5940  -29.8420   -3.7530 ha       217 PS       0.124800
   3471 HE2       -20.8640  -28.3020   -4.5530 ha       217 PS       0.105800
   3472 HD2       -20.0640  -26.4320   -3.0930 ha       217 PS       0.124600
   3473 C2        -22.3840  -24.6620   -0.3230 c3       218 PS       0.031000
   3474 C1        -22.8440  -23.8220   -1.5330 c3       218 PS       0.000400
   3475 CG        -21.7140  -22.9120   -1.9930 ca       218 PS       0.250900
   3476 CD1       -21.2940  -21.7820   -1.2830 ca       218 PS      -0.270200
   3477 CE1       -20.1140  -21.0920   -1.7030 ca       218 PS      -0.050500
   3478 CZ        -19.5540  -21.3420   -2.9430 ca       218 PS      -0.188800
   3479 CE2       -19.9840  -22.4320   -3.6930 ca       218 PS      -0.050500
   3480 CD2       -21.0740  -23.2120   -3.2230 ca       218 PS      -0.270200
   3481 H21       -23.1740  -25.3320    0.0470 hc       218 PS      -0.016200
   3482 H22       -22.0840  -23.9520    0.4470 hc       218 PS      -0.016200
   3483 H1        -23.1240  -24.4120   -2.4130 hc       218 PS      -0.005300
   3484 HD1       -21.7440  -21.5120   -0.3330 ha       218 PS       0.124600
   3485 HE1       -19.7040  -20.2520   -1.1530 ha       218 PS       0.105800
   3486 HZ        -18.7040  -20.7720   -3.3030 ha       218 PS       0.124800
   3487 HE2       -19.5440  -22.7620   -4.6230 ha       218 PS       0.105800
   3488 HD2       -21.3040  -24.1220   -3.7730 ha       218 PS       0.124600
   3489 C2        -24.0840  -22.9420   -1.1830 c3       219 PS       0.031000
   3490 C1        -25.4440  -23.6220   -1.2930 c3       219 PS       0.000400
   3491 CG        -25.7140  -24.7720   -0.2830 ca       219 PS       0.250900
   3492 CD1       -25.7740  -24.5520    1.0870 ca       219 PS      -0.270200
   3493 CE1       -25.8540  -25.6820    2.0070 ca       219 PS      -0.050500
   3494 CZ        -25.8240  -26.9720    1.5470 ca       219 PS      -0.188800
   3495 CE2       -25.7340  -27.2320    0.1770 ca       219 PS      -0.050500
   3496 CD2       -25.6140  -26.1320   -0.7430 ca       219 PS      -0.270200
   3497 H21       -23.9040  -22.4120   -0.2430 hc       219 PS      -0.016200
   3498 H22       -24.0740  -22.1720   -1.9730 hc       219 PS      -0.016200
   3499 H1        -25.5040  -23.9820   -2.3230 hc       219 PS      -0.005300
   3500 HD1       -25.8340  -23.5120    1.4070 ha       219 PS       0.124600
   3501 HE1       -25.7340  -25.5620    3.0770 ha       219 PS       0.105800
   3502 HZ        -25.8440  -27.7920    2.2570 ha       219 PS       0.124800
   3503 HE2       -25.6540  -28.2220   -0.2530 ha       219 PS       0.105800
   3504 HD2       -25.5440  -26.3420   -1.8030 ha       219 PS       0.124600
   3505 C2        -26.5640  -22.5820   -1.1730 c3       220 PS       0.031000
   3506 C1        -27.9640  -23.0920   -1.7130 c3       220 PS       0.000400
   3507 CG        -28.7340  -23.9020   -0.6830 ca       220 PS       0.250900
   3508 CD1       -29.0140  -23.3820    0.5870 ca       220 PS      -0.270200
   3509 CE1       -29.8040  -24.1320    1.5170 ca       220 PS      -0.050500
   3510 CZ        -30.3940  -25.3020    1.1370 ca       220 PS      -0.188800
   3511 CE2       -29.9740  -25.9420   -0.1030 ca       220 PS      -0.050500
   3512 CD2       -29.0740  -25.2720   -0.9530 ca       220 PS      -0.270200
   3513 H21       -26.6040  -22.1220   -0.1730 hc       220 PS      -0.016200
   3514 H22       -26.2440  -21.7820   -1.8330 hc       220 PS      -0.016200
   3515 H1        -27.6440  -23.7420   -2.5330 hc       220 PS      -0.005300
   3516 HD1       -28.6740  -22.3820    0.8470 ha       220 PS       0.124600
   3517 HE1       -29.9540  -23.7020    2.5070 ha       220 PS       0.105800
   3518 HZ        -31.0040  -25.9020    1.8170 ha       220 PS       0.124800
   3519 HE2       -30.1940  -26.9820   -0.3430 ha       220 PS       0.105800
   3520 HD2       -28.6840  -25.8120   -1.8030 ha       220 PS       0.124600
   3521 C2        -28.8440  -21.9220   -2.2530 c3       221 PS       0.031000
   3522 C1        -30.2140  -22.3820   -2.8430 c3       221 PS       0.000400
   3523 CG        -30.0340  -23.5320   -3.9630 ca       221 PS       0.250900
   3524 CD1       -30.6740  -24.6820   -3.6630 ca       221 PS      -0.270200
   3525 CE1       -30.6640  -25.7420   -4.5830 ca       221 PS      -0.050500
   3526 CZ        -30.0640  -25.6620   -5.7730 ca       221 PS      -0.188800
   3527 CE2       -29.3340  -24.5020   -6.1530 ca       221 PS      -0.050500
   3528 CD2       -29.2640  -23.4020   -5.1930 ca       221 PS      -0.270200
   3529 H21       -28.9040  -21.1320   -1.5030 hc       221 PS      -0.016200
   3530 H22       -28.2740  -21.3820   -3.0230 hc       221 PS      -0.016200
   3531 H1        -30.7940  -22.7020   -1.9730 hc       221 PS      -0.005300
   3532 HD1       -31.1640  -24.8320   -2.7030 ha       221 PS       0.124600
   3533 HE1       -31.1340  -26.6820   -4.3130 ha       221 PS       0.105800
   3534 HZ        -30.1140  -26.4320   -6.5430 ha       221 PS       0.124800
   3535 HE2       -28.9240  -24.5120   -7.1530 ha       221 PS       0.105800
   3536 HD2       -28.7540  -22.4820   -5.4530 ha       221 PS       0.124600
   3537 C2        -30.9140  -21.0520   -3.3530 c3       222 PS       0.031000
   3538 C1        -31.8240  -21.1720   -4.5830 c3       222 PS       0.000400
   3539 CG        -31.9040  -19.9120   -5.3730 ca       222 PS       0.250900
   3540 CD1       -31.5140  -19.9720   -6.7030 ca       222 PS      -0.270200
   3541 CE1       -31.8140  -18.8620   -7.5730 ca       222 PS      -0.050500
   3542 CZ        -32.5040  -17.7420   -7.0230 ca       222 PS      -0.188800
   3543 CE2       -32.9440  -17.6720   -5.7330 ca       222 PS      -0.050500
   3544 CD2       -32.6240  -18.7920   -4.8930 ca       222 PS      -0.270200
   3545 H21       -31.4240  -20.5820   -2.5030 hc       222 PS      -0.016200
   3546 H22       -30.2640  -20.2120   -3.6230 hc       222 PS      -0.016200
   3547 H1        -31.2840  -21.9020   -5.2230 hc       222 PS      -0.005300
   3548 HD1       -31.1440  -20.9020   -7.1430 ha       222 PS       0.124600
   3549 HE1       -31.5540  -18.8420   -8.6230 ha       222 PS       0.105800
   3550 HZ        -32.5840  -16.8420   -7.6230 ha       222 PS       0.124800
   3551 HE2       -33.4140  -16.7920   -5.2830 ha       222 PS       0.105800
   3552 HD2       -32.9240  -18.7520   -3.8530 ha       222 PS       0.124600
   3553 C2        -33.3140  -21.6820   -4.1030 c3       223 PS       0.031000
   3554 C1        -34.1240  -22.1620   -5.3130 c3       223 PS       0.000400
   3555 CG        -33.5940  -23.4520   -5.9330 ca       223 PS       0.250900
   3556 CD1       -32.9740  -23.4320   -7.1930 ca       223 PS      -0.270200
   3557 CE1       -32.5240  -24.5320   -7.8330 ca       223 PS      -0.050500
   3558 CZ        -32.8240  -25.7720   -7.3530 ca       223 PS      -0.188800
   3559 CE2       -33.4940  -25.8520   -6.1430 ca       223 PS      -0.050500
   3560 CD2       -33.7840  -24.7120   -5.4030 ca       223 PS      -0.270200
   3561 H21       -33.0740  -22.5720   -3.5130 hc       223 PS      -0.016200
   3562 H22       -33.7240  -20.8920   -3.4730 hc       223 PS      -0.016200
   3563 H1        -34.0840  -21.3020   -5.9930 hc       223 PS      -0.005300
   3564 HD1       -32.9240  -22.4920   -7.7330 ha       223 PS       0.124600
   3565 HE1       -31.9540  -24.5020   -8.7530 ha       223 PS       0.105800
   3566 HZ        -32.5740  -26.6320   -7.9730 ha       223 PS       0.124800
   3567 HE2       -33.8040  -26.8120   -5.7530 ha       223 PS       0.105800
   3568 HD2       -34.2640  -24.8520   -4.4430 ha       223 PS       0.124600
   3569 C2        -35.6040  -22.2820   -4.7530 c3       224 PS       0.031000
   3570 C1        -36.6340  -22.1720   -5.9430 c3       224 PS       0.000400
   3571 CG        -36.5540  -20.8220   -6.6630 ca       224 PS       0.250900
   3572 CD1       -35.7740  -20.6320   -7.8130 ca       224 PS      -0.270200
   3573 CE1       -35.5640  -19.3720   -8.3430 ca       224 PS      -0.050500
   3574 CZ        -36.2740  -18.3620   -7.8230 ca       224 PS      -0.188800
   3575 CE2       -37.0440  -18.4420   -6.6430 ca       224 PS      -0.050500
   3576 CD2       -37.1640  -19.7120   -6.0330 ca       224 PS      -0.270200
   3577 H21       -35.6740  -23.2620   -4.2730 hc       224 PS      -0.016200
   3578 H22       -35.9040  -21.5120   -4.0430 hc       224 PS      -0.016200
   3579 H1        -36.3540  -22.9620   -6.6530 hc       224 PS      -0.005300
   3580 HD1       -35.2540  -21.4620   -8.2830 ha       224 PS       0.124600
   3581 HE1       -34.9740  -19.2720   -9.2530 ha       224 PS       0.105800
   3582 HZ        -36.1740  -17.4120   -8.3430 ha       224 PS       0.124800
   3583 HE2       -37.3840  -17.5220   -6.1730 ha       224 PS       0.105800
   3584 HD2       -37.7640  -19.8420   -5.1330 ha       224 PS       0.124600
   3585 C2        -38.0740  -22.5620   -5.4830 c3       225 PS       0.031000
   3586 C1        -38.4140  -23.9720   -5.0130 c3       225 PS       0.000400
   3587 CG        -37.9540  -25.0820   -5.9630 ca       225 PS       0.250900
   3588 CD1       -38.4940  -25.3220   -7.2430 ca       225 PS      -0.270200
   3589 CE1       -38.1740  -26.5320   -7.8830 ca       225 PS      -0.050500
   3590 CZ        -37.2340  -27.4020   -7.3830 ca       225 PS      -0.188800
   3591 CE2       -36.6740  -27.1220   -6.1930 ca       225 PS      -0.050500
   3592 CD2       -36.9540  -25.9920   -5.4930 ca       225 PS      -0.270200
   3593 H21       -38.4140  -21.8520   -4.7230 hc       225 PS      -0.016200
   3594 H22       -38.7740  -22.3120   -6.3030 hc       225 PS      -0.016200
   3595 H1        -37.9540  -24.0420   -4.0230 hc       225 PS      -0.005300
   3596 HD1       -39.0740  -24.6120   -7.8230 ha       225 PS       0.124600
   3597 HE1       -38.6340  -26.6420   -8.8630 ha       225 PS       0.105800
   3598 HZ        -36.9840  -28.3620   -7.8330 ha       225 PS       0.124800
   3599 HE2       -36.0940  -27.9120   -5.7230 ha       225 PS       0.105800
   3600 HD2       -36.5240  -25.9420   -4.4930 ha       225 PS       0.124600
   3601 C2         40.0460  -24.0320   -4.8330 c3       226 PS       0.031000
   3602 C1         39.4960  -25.3820   -4.1830 c3       226 PS       0.000400
   3603 CG         38.0060  -25.1720   -3.9630 ca       226 PS       0.250900
   3604 CD1        37.1160  -25.6120   -4.9630 ca       226 PS      -0.270200
   3605 CE1        35.7660  -25.7220   -4.7430 ca       226 PS      -0.050500
   3606 CZ         35.2460  -25.2920   -3.5330 ca       226 PS      -0.188800
   3607 CE2        36.1060  -24.6520   -2.6030 ca       226 PS      -0.050500
   3608 CD2        37.5160  -24.5820   -2.7830 ca       226 PS      -0.270200
   3609 H21        39.8060  -23.2620   -4.0830 hc       226 PS      -0.016200
   3610 H22        39.5560  -23.7620   -5.7730 hc       226 PS      -0.016200
   3611 H1         39.6760  -26.0820   -5.0030 hc       226 PS      -0.005300
   3612 HD1        37.5060  -25.8620   -5.9430 ha       226 PS       0.124600
   3613 HE1        35.1260  -26.1720   -5.5030 ha       226 PS       0.105800
   3614 HZ         34.1760  -25.2220   -3.3230 ha       226 PS       0.124800
   3615 HE2        35.7160  -24.2620   -1.6630 ha       226 PS       0.105800
   3616 HD2        38.2160  -24.3220   -2.0030 ha       226 PS       0.124600
   3617 C2         40.2060  -25.8220   -2.8830 c3       227 PS       0.031000
   3618 C1         39.7260  -27.1320   -2.2730 c3       227 PS       0.000400
   3619 CG         39.6560  -28.2120   -3.3030 ca       227 PS       0.250900
   3620 CD1        40.8360  -28.6520   -3.9330 ca       227 PS      -0.270200
   3621 CE1        40.8460  -29.7620   -4.7930 ca       227 PS      -0.050500
   3622 CZ         39.6560  -30.4520   -5.0130 ca       227 PS      -0.188800
   3623 CE2        38.4560  -29.9920   -4.4330 ca       227 PS      -0.050500
   3624 CD2        38.4960  -28.8920   -3.5630 ca       227 PS      -0.270200
   3625 H21        41.2560  -25.9920   -3.1530 hc       227 PS      -0.016200
   3626 H22        40.2160  -25.0020   -2.1430 hc       227 PS      -0.016200
   3627 H1         38.7460  -27.0220   -1.7930 hc       227 PS      -0.005300
   3628 HD1        41.8060  -28.2320   -3.6830 ha       227 PS       0.124600
   3629 HE1        41.7560  -30.2020   -5.1830 ha       227 PS       0.105800
   3630 HZ         39.5760  -31.2920   -5.6930 ha       227 PS       0.124800
   3631 HE2        37.5060  -30.4220   -4.7230 ha       227 PS       0.105800
   3632 HD2        37.5660  -28.4920   -3.1730 ha       227 PS       0.124600
   3633 C2         40.5460  -27.6220   -1.0230 c3       228 PS       0.031000
   3634 C1         39.6760  -28.6020   -0.1730 c3       228 PS       0.000400
   3635 CG         38.4860  -27.8920    0.5370 ca       228 PS       0.250900
   3636 CD1        38.6460  -26.9520    1.5670 ca       228 PS      -0.270200
   3637 CE1        37.4660  -26.4020    2.1070 ca       228 PS      -0.050500
   3638 CZ         36.1660  -26.7220    1.6970 ca       228 PS      -0.188800
   3639 CE2        36.0560  -27.6020    0.6570 ca       228 PS      -0.050500
   3640 CD2        37.1760  -28.2320    0.0970 ca       228 PS      -0.270200
   3641 H21        41.5160  -27.9920   -1.3730 hc       228 PS      -0.016200
   3642 H22        40.8460  -26.7020   -0.5030 hc       228 PS      -0.016200
   3643 H1         39.2160  -29.3620   -0.8230 hc       228 PS      -0.005300
   3644 HD1        39.6360  -26.7220    1.9370 ha       228 PS       0.124600
   3645 HE1        37.5060  -25.7020    2.9370 ha       228 PS       0.105800
   3646 HZ         35.3360  -26.1320    2.0870 ha       228 PS       0.124800
   3647 HE2        35.0860  -27.8420    0.2370 ha       228 PS       0.105800
   3648 HD2        37.0060  -28.9620   -0.6830 ha       228 PS       0.124600
   3649 C2        -39.4140  -29.2920    0.9070 c3       229 PS       0.031000
   3650 C1        -38.2340  -30.1520    0.2970 c3       229 PS       0.000400
   3651 CG        -38.6440  -31.6720    0.1970 ca       229 PS       0.250900
   3652 CD1       -38.3240  -32.6420    1.1670 ca       229 PS      -0.270200
   3653 CE1       -38.6240  -33.9620    0.9170 ca       229 PS      -0.050500
   3654 CZ        -39.2140  -34.3620   -0.2930 ca       229 PS      -0.188800
   3655 CE2       -39.5240  -33.4820   -1.2830 ca       229 PS      -0.050500
   3656 CD2       -39.2440  -32.1420   -1.0330 ca       229 PS      -0.270200
   3657 H21       -38.9440  -28.5520    1.5670 hc       229 PS      -0.016200
   3658 H22       -40.0740  -29.9320    1.4970 hc       229 PS      -0.016200
   3659 H1        -38.1340  -29.8420   -0.7530 hc       229 PS      -0.005300
   3660 HD1       -37.8540  -32.4420    2.1270 ha       229 PS       0.124600
   3661 HE1       -38.4140  -34.7120    1.6670 ha       229 PS       0.105800
   3662 HZ        -39.3940  -35.4020   -0.5330 ha       229 PS       0.124800
   3663 HE2       -39.8540  -33.7820   -2.2730 ha       229 PS       0.105800
   3664 HD2       -39.4040  -31.4520   -1.8630 ha       229 PS       0.124600
   3665 C2        -36.8240  -30.0420    0.9370 c3       230 PS       0.031000
   3666 C1        -35.9840  -28.8120    0.3870 c3       230 PS       0.000400
   3667 CG        -34.8340  -28.5520    1.3270 ca       230 PS       0.250900
   3668 CD1       -34.7840  -27.2920    1.9070 ca       230 PS      -0.270200
   3669 CE1       -33.6640  -26.9620    2.6870 ca       230 PS      -0.050500
   3670 CZ        -32.6640  -27.9820    2.9770 ca       230 PS      -0.188800
   3671 CE2       -32.8440  -29.2920    2.5970 ca       230 PS      -0.050500
   3672 CD2       -33.8540  -29.5120    1.6870 ca       230 PS      -0.270200
   3673 H21       -36.9640  -29.9520    2.0270 hc       230 PS      -0.016200
   3674 H22       -36.2040  -30.9520    0.9370 hc       230 PS      -0.016200
   3675 H1        -36.6440  -27.9420    0.3470 hc       230 PS      -0.005300
   3676 HD1       -35.5540  -26.5320    1.7970 ha       230 PS       0.124600
   3677 HE1       -33.6740  -25.9620    3.1170 ha       230 PS       0.105800
   3678 HZ        -31.8340  -27.7420    3.6370 ha       230 PS       0.124800
   3679 HE2       -32.1240  -30.0820    2.7670 ha       230 PS       0.105800
   3680 HD2       -33.9740  -30.4520    1.1570 ha       230 PS       0.124600
   3681 C2        -35.4640  -29.2920   -0.9830 c3       231 PS       0.031000
   3682 C1        -34.3140  -28.4120   -1.6730 c3       231 PS       0.000400
   3683 CG        -34.4440  -26.9420   -1.8030 ca       231 PS       0.250900
   3684 CD1       -33.3940  -26.1220   -1.4530 ca       231 PS      -0.270200
   3685 CE1       -33.5440  -24.7220   -1.4730 ca       231 PS      -0.050500
   3686 CZ        -34.8140  -24.1520   -1.7730 ca       231 PS      -0.188800
   3687 CE2       -35.8640  -24.9720   -2.1030 ca       231 PS      -0.050500
   3688 CD2       -35.6640  -26.4120   -2.1930 ca       231 PS      -0.270200
   3689 H21       -35.0340  -30.2720   -0.7830 hc       231 PS      -0.016200
   3690 H22       -36.2940  -29.3720   -1.6930 hc       231 PS      -0.016200
   3691 H1        -33.4940  -28.6320   -0.9930 hc       231 PS      -0.005300
   3692 HD1       -32.5640  -26.5720   -0.9030 ha       231 PS       0.124600
   3693 HE1       -32.6740  -24.1420   -1.1630 ha       231 PS       0.105800
   3694 HZ        -35.0940  -23.1020   -1.7330 ha       231 PS       0.124800
   3695 HE2       -36.8440  -24.6120   -2.3930 ha       231 PS       0.105800
   3696 HD2       -36.4440  -27.0620   -2.5730 ha       231 PS       0.124600
   3697 C2        -33.9040  -29.0220   -3.0430 c3       232 PS       0.031000
   3698 C1        -32.7140  -29.9520   -3.0630 c3       232 PS       0.000400
   3699 CG        -32.8340  -30.9520   -4.2330 ca       232 PS       0.250900
   3700 CD1       -32.4140  -30.7820   -5.5530 ca       232 PS      -0.270200
   3701 CE1       -32.6440  -31.7620   -6.5330 ca       232 PS      -0.050500
   3702 CZ        -33.2940  -32.9220   -6.1930 ca       232 PS      -0.188800
   3703 CE2       -33.6940  -33.1520   -4.8930 ca       232 PS      -0.050500
   3704 CD2       -33.5140  -32.1720   -3.9930 ca       232 PS      -0.270200
   3705 H21       -34.8240  -29.5620   -3.3230 hc       232 PS      -0.016200
   3706 H22       -33.7640  -28.2520   -3.8030 hc       232 PS      -0.016200
   3707 H1        -32.8640  -30.5020   -2.1230 hc       232 PS      -0.005300
   3708 HD1       -31.9340  -29.8420   -5.8230 ha       232 PS       0.124600
   3709 HE1       -32.2640  -31.6420   -7.5430 ha       232 PS       0.105800
   3710 HZ        -33.4440  -33.7320   -6.8930 ha       232 PS       0.124800
   3711 HE2       -34.2140  -34.0620   -4.6030 ha       232 PS       0.105800
   3712 HD2       -33.8040  -32.4020   -2.9730 ha       232 PS       0.124600
   3713 C2        -31.3140  -29.1720   -3.0630 c3       233 PS       0.031000
   3714 C1        -30.0840  -30.0620   -2.6830 c3       233 PS       0.000400
   3715 CG        -30.3240  -30.8820   -1.3930 ca       233 PS       0.250900
   3716 CD1       -30.5940  -32.2620   -1.4930 ca       233 PS      -0.270200
   3717 CE1       -30.6840  -33.0120   -0.2730 ca       233 PS      -0.050500
   3718 CZ        -30.4040  -32.4020    0.9570 ca       233 PS      -0.188800
   3719 CE2       -30.1540  -31.0620    1.0470 ca       233 PS      -0.050500
   3720 CD2       -30.0640  -30.2920   -0.1230 ca       233 PS      -0.270200
   3721 H21       -31.1040  -28.8920   -4.1030 hc       233 PS      -0.016200
   3722 H22       -31.3340  -28.2320   -2.5030 hc       233 PS      -0.016200
   3723 H1        -30.0940  -30.8120   -3.4930 hc       233 PS      -0.005300
   3724 HD1       -30.7440  -32.6420   -2.5030 ha       233 PS       0.124600
   3725 HE1       -30.8040  -34.0920   -0.3330 ha       233 PS       0.105800
   3726 HZ        -30.2240  -33.0420    1.8170 ha       233 PS       0.124800
   3727 HE2       -29.8940  -30.6420    2.0170 ha       233 PS       0.105800
   3728 HD2       -29.6540  -29.2820   -0.0830 ha       233 PS       0.124600
   3729 C2        -28.6340  -29.3120   -2.6830 c3       234 PS       0.031000
   3730 C1        -28.1140  -28.8420   -4.0630 c3       234 PS       0.000400
   3731 CG        -27.8240  -30.0220   -4.9930 ca       234 PS       0.250900
   3732 CD1       -26.8340  -30.9820   -4.7630 ca       234 PS      -0.270200
   3733 CE1       -26.6940  -32.1120   -5.6030 ca       234 PS      -0.050500
   3734 CZ        -27.4240  -32.2020   -6.7830 ca       234 PS      -0.188800
   3735 CE2       -28.4940  -31.2620   -6.9830 ca       234 PS      -0.050500
   3736 CD2       -28.7140  -30.2120   -6.1130 ca       234 PS      -0.270200
   3737 H21       -28.6940  -28.4920   -1.9530 hc       234 PS      -0.016200
   3738 H22       -27.9040  -29.9920   -2.2330 hc       234 PS      -0.016200
   3739 H1        -28.9240  -28.1720   -4.3830 hc       234 PS      -0.005300
   3740 HD1       -26.1040  -30.8920   -3.9530 ha       234 PS       0.124600
   3741 HE1       -25.8840  -32.8120   -5.4430 ha       234 PS       0.105800
   3742 HZ        -27.2840  -33.0620   -7.4330 ha       234 PS       0.124800
   3743 HE2       -29.0740  -31.4120   -7.8830 ha       234 PS       0.105800
   3744 HD2       -29.4240  -29.4620   -6.4530 ha       234 PS       0.124600
   3745 C2        -26.9440  -27.8920   -3.8130 c3       235 PS       0.031000
   3746 C1        -26.4740  -27.1120   -5.1330 c3       235 PS       0.000400
   3747 CG        -25.5540  -27.9220   -5.9930 ca       235 PS       0.250900
   3748 CD1       -24.3040  -28.2720   -5.6130 ca       235 PS      -0.270200
   3749 CE1       -23.4940  -29.0720   -6.4530 ca       235 PS      -0.050500
   3750 CZ        -24.0240  -29.4920   -7.7130 ca       235 PS      -0.188800
   3751 CE2       -25.3340  -29.2120   -8.0830 ca       235 PS      -0.050500
   3752 CD2       -26.0840  -28.3220   -7.2130 ca       235 PS      -0.270200
   3753 H21       -27.1540  -27.2620   -2.9430 hc       235 PS      -0.016200
   3754 H22       -26.0940  -28.5120   -3.4930 hc       235 PS      -0.016200
   3755 H1        -27.4440  -27.0220   -5.6530 hc       235 PS      -0.005300
   3756 HD1       -24.0040  -27.8920   -4.6430 ha       235 PS       0.124600
   3757 HE1       -22.4840  -29.3520   -6.1630 ha       235 PS       0.105800
   3758 HZ        -23.4240  -30.0420   -8.4330 ha       235 PS       0.124800
   3759 HE2       -25.6840  -29.5720   -9.0530 ha       235 PS       0.105800
   3760 HD2       -27.0940  -28.0420   -7.5130 ha       235 PS       0.124600
   3761 C2        -25.9240  -25.7520   -4.5930 c3       236 PS       0.031000
   3762 C1        -25.3440  -24.7720   -5.7130 c3       236 PS       0.000400
   3763 CG        -24.0240  -25.2120   -6.3030 ca       236 PS       0.250900
   3764 CD1       -23.8640  -25.3320   -7.6930 ca       236 PS      -0.270200
   3765 CE1       -22.6340  -25.5120   -8.2630 ca       236 PS      -0.050500
   3766 CZ        -21.5240  -25.7920   -7.4730 ca       236 PS      -0.188800
   3767 CE2       -21.6840  -25.8120   -6.0530 ca       236 PS      -0.050500
   3768 CD2       -22.9340  -25.3820   -5.4630 ca       236 PS      -0.270200
   3769 H21       -26.7140  -25.2820   -4.0030 hc       236 PS      -0.016200
   3770 H22       -25.0540  -25.9820   -3.9730 hc       236 PS      -0.016200
   3771 H1        -26.0440  -24.7220   -6.5530 hc       236 PS      -0.005300
   3772 HD1       -24.7340  -25.1020   -8.3030 ha       236 PS       0.124600
   3773 HE1       -22.6540  -25.6220   -9.3430 ha       236 PS       0.105800
   3774 HZ        -20.5040  -25.9420   -7.8130 ha       236 PS       0.124800
   3775 HE2       -20.8340  -26.0920   -5.4330 ha       236 PS       0.105800
   3776 HD2       -23.0440  -25.1820   -4.4030 ha       236 PS       0.124600
   3777 C2        -25.2940  -23.3320   -5.1830 c3       237 PS       0.031000
   3778 C1        -24.9540  -22.1620   -6.1830 c3       237 PS       0.000400
   3779 CG        -26.0540  -21.0920   -6.0930 ca       237 PS       0.250900
   3780 CD1       -26.7740  -20.8620   -7.2130 ca       237 PS      -0.270200
   3781 CE1       -27.9140  -20.0520   -7.3230 ca       237 PS      -0.050500
   3782 CZ        -28.4340  -19.5020   -6.1030 ca       237 PS      -0.188800
   3783 CE2       -27.6440  -19.6620   -4.9230 ca       237 PS      -0.050500
   3784 CD2       -26.5440  -20.5420   -4.8930 ca       237 PS      -0.270200
   3785 H21       -26.3140  -23.1820   -4.8230 hc       237 PS      -0.016200
   3786 H22       -24.6540  -23.3520   -4.2930 hc       237 PS      -0.016200
   3787 H1        -24.8240  -22.6320   -7.1630 hc       237 PS      -0.005300
   3788 HD1       -26.4340  -21.3820   -8.1130 ha       237 PS       0.124600
   3789 HE1       -28.3440  -19.9720   -8.3130 ha       237 PS       0.105800
   3790 HZ        -29.2140  -18.7520   -6.0430 ha       237 PS       0.124800
   3791 HE2       -27.8740  -19.0820   -4.0330 ha       237 PS       0.105800
   3792 HD2       -26.0040  -20.6420   -3.9530 ha       237 PS       0.124600
   3793 C2        -23.5140  -21.6920   -5.6930 c3       238 PS       0.031000
   3794 C1        -22.8340  -20.6520   -6.6230 c3       238 PS       0.000400
   3795 CG        -23.4640  -19.2220   -6.4630 ca       238 PS       0.250900
   3796 CD1       -23.2140  -18.4520   -5.2830 ca       238 PS      -0.270200
   3797 CE1       -23.5340  -17.1120   -5.2430 ca       238 PS      -0.050500
   3798 CZ        -24.2840  -16.5120   -6.2230 ca       238 PS      -0.188800
   3799 CE2       -24.6740  -17.3120   -7.3430 ca       238 PS      -0.050500
   3800 CD2       -24.1940  -18.6420   -7.5230 ca       238 PS      -0.270200
   3801 H21       -23.5840  -21.3120   -4.6730 hc       238 PS      -0.016200
   3802 H22       -22.7940  -22.5220   -5.6630 hc       238 PS      -0.016200
   3803 H1        -22.9440  -21.0020   -7.6530 hc       238 PS      -0.005300
   3804 HD1       -22.6240  -18.8720   -4.4730 ha       238 PS       0.124600
   3805 HE1       -23.1740  -16.5520   -4.3830 ha       238 PS       0.105800
   3806 HZ        -24.5440  -15.4620   -6.1730 ha       238 PS       0.124800
   3807 HE2       -25.3040  -16.9220   -8.1330 ha       238 PS       0.105800
   3808 HD2       -24.4540  -19.2020   -8.4130 ha       238 PS       0.124600
   3809 C2        -21.2940  -20.6220   -6.4930 c3       239 PS       0.031000
   3810 C1        -20.4740  -19.2820   -6.6730 c3       239 PS       0.000400
   3811 CG        -19.0740  -19.3620   -6.0630 ca       239 PS       0.250900
   3812 CD1       -18.0940  -20.2620   -6.5330 ca       239 PS      -0.270200
   3813 CE1       -16.8840  -20.3220   -5.8630 ca       239 PS      -0.050500
   3814 CZ        -16.5240  -19.4420   -4.8330 ca       239 PS      -0.188800
   3815 CE2       -17.4340  -18.5020   -4.4330 ca       239 PS      -0.050500
   3816 CD2       -18.6840  -18.3820   -5.1130 ca       239 PS      -0.270200
   3817 H21       -21.1840  -21.0520   -5.4930 hc       239 PS      -0.016200
   3818 H22       -20.8940  -21.4020   -7.1630 hc       239 PS      -0.016200
   3819 H1        -20.8740  -18.4420   -6.1030 hc       239 PS      -0.005300
   3820 HD1       -18.3840  -21.0420   -7.2330 ha       239 PS       0.124600
   3821 HE1       -16.1840  -21.1120   -6.1430 ha       239 PS       0.105800
   3822 HZ        -15.5540  -19.6120   -4.3630 ha       239 PS       0.124800
   3823 HE2       -17.1340  -17.6720   -3.8030 ha       239 PS       0.105800
   3824 HD2       -19.4240  -17.6920   -4.7030 ha       239 PS       0.124600
   3825 C2        -20.4940  -18.8320   -8.1330 c3       240 PS       0.031000
   3826 C1        -19.6640  -17.5920   -8.3830 c3       240 PS       0.000400
   3827 CG        -20.2140  -16.1920   -8.2330 ca       240 PS       0.250900
   3828 CD1       -19.3440  -15.1420   -7.8530 ca       240 PS      -0.270200
   3829 CE1       -19.7940  -13.8820   -7.5430 ca       240 PS      -0.050500
   3830 CZ        -21.1440  -13.4920   -7.7430 ca       240 PS      -0.188800
   3831 CE2       -22.0340  -14.5120   -8.1130 ca       240 PS      -0.050500
   3832 CD2       -21.6240  -15.8220   -8.3930 ca       240 PS      -0.270200
   3833 H21       -20.1840  -19.6620   -8.7730 hc       240 PS      -0.016200
   3834 H22       -21.5240  -18.6220   -8.4430 hc       240 PS      -0.016200
   3835 H1        -18.6140  -17.6020   -8.0530 hc       240 PS      -0.005300
   3836 HD1       -18.3140  -15.4520   -7.6930 ha       240 PS       0.124600
   3837 HE1       -19.0640  -13.2120   -7.1230 ha       240 PS       0.105800
   3838 HZ        -21.4140  -12.4820   -7.4430 ha       240 PS       0.124800
   3839 HE2       -23.0940  -14.3620   -7.9630 ha       240 PS       0.105800
   3840 HD2       -22.3940  -16.4920   -8.7830 ha       240 PS       0.124600
   3841 C2         10.9160  -34.1220   -0.6830 c3       241 PS       0.031000
   3842 C1          9.8360  -33.1020   -1.0530 c3       241 PS       0.000400
   3843 CG          8.4660  -33.7220   -0.8630 ca       241 PS       0.250900
   3844 CD1         7.5760  -33.8120   -1.9530 ca       241 PS      -0.270200
   3845 CE1         6.2960  -34.4720   -1.7230 ca       241 PS      -0.050500
   3846 CZ          5.9460  -35.0220   -0.4630 ca       241 PS      -0.188800
   3847 CE2         6.7160  -34.7220    0.6570 ca       241 PS      -0.050500
   3848 CD2         7.9860  -34.1020    0.4170 ca       241 PS      -0.270200
   3849 H21        11.1060  -34.1720    0.3970 hc       241 PS      -0.016200
   3850 H22        10.5360  -35.0920   -1.0330 hc       241 PS      -0.016200
   3851 H1         10.0760  -32.9120   -2.1130 hc       241 PS      -0.005300
   3852 HD1         8.0060  -33.5120   -2.9030 ha       241 PS       0.124600
   3853 HE1         5.5760  -34.6520   -2.5230 ha       241 PS       0.105800
   3854 HZ          5.0060  -35.5520   -0.3230 ha       241 PS       0.124800
   3855 HE2         6.4860  -35.1020    1.6470 ha       241 PS       0.105800
   3856 HD2         8.6360  -33.9620    1.2770 ha       241 PS       0.124600
   3857 C2         10.0960  -31.7820   -0.2530 c3       242 PS       0.031000
   3858 C1          9.2560  -30.5620   -0.7530 c3       242 PS       0.000400
   3859 CG          7.8260  -30.7420   -0.2530 ca       242 PS       0.250900
   3860 CD1         7.5760  -30.6820    1.0970 ca       242 PS      -0.270200
   3861 CE1         6.2060  -30.8120    1.5170 ca       242 PS      -0.050500
   3862 CZ          5.2060  -31.1320    0.6270 ca       242 PS      -0.188800
   3863 CE2         5.4460  -31.3320   -0.7630 ca       242 PS      -0.050500
   3864 CD2         6.8360  -31.1120   -1.1330 ca       242 PS      -0.270200
   3865 H21         9.8560  -32.0220    0.7970 hc       242 PS      -0.016200
   3866 H22        11.1460  -31.4620   -0.3030 hc       242 PS      -0.016200
   3867 H1          9.2460  -30.6220   -1.8530 hc       242 PS      -0.005300
   3868 HD1         8.3860  -30.5220    1.7970 ha       242 PS       0.124600
   3869 HE1         5.9060  -30.6920    2.5570 ha       242 PS       0.105800
   3870 HZ          4.2360  -31.2620    1.0970 ha       242 PS       0.124800
   3871 HE2         4.7260  -31.6220   -1.5230 ha       242 PS       0.105800
   3872 HD2         7.1060  -31.2920   -2.1630 ha       242 PS       0.124600
   3873 C2          9.8960  -29.2220   -0.2830 c3       243 PS       0.031000
   3874 C1          9.1660  -27.8920   -0.6330 c3       243 PS       0.000400
   3875 CG         10.1260  -26.7220   -0.4930 ca       243 PS       0.250900
   3876 CD1        11.2460  -26.5520   -1.3330 ca       243 PS      -0.270200
   3877 CE1        11.9060  -25.2920   -1.4030 ca       243 PS      -0.050500
   3878 CZ         11.4160  -24.1920   -0.7230 ca       243 PS      -0.188800
   3879 CE2        10.2660  -24.3820    0.0670 ca       243 PS      -0.050500
   3880 CD2         9.6160  -25.5620    0.1870 ca       243 PS      -0.270200
   3881 H21        10.1160  -29.2120    0.7970 hc       243 PS      -0.016200
   3882 H22        10.9060  -29.2120   -0.7030 hc       243 PS      -0.016200
   3883 H1          8.4360  -27.7020    0.1670 hc       243 PS      -0.005300
   3884 HD1        11.6160  -27.4220   -1.8730 ha       243 PS       0.124600
   3885 HE1        12.8060  -25.1820   -1.9930 ha       243 PS       0.105800
   3886 HZ         11.9460  -23.2720   -0.5330 ha       243 PS       0.124800
   3887 HE2         9.9360  -23.4820    0.5770 ha       243 PS       0.105800
   3888 HD2         8.7460  -25.5120    0.8370 ha       243 PS       0.124600
   3889 C2          8.4360  -27.9420   -1.9930 c3       244 PS       0.031000
   3890 C1          7.3260  -26.9320   -2.2330 c3       244 PS       0.000400
   3891 CG          6.1960  -26.9420   -1.2130 ca       244 PS       0.250900
   3892 CD1         6.1460  -25.8220   -0.3330 ca       244 PS      -0.270200
   3893 CE1         5.2060  -25.7420    0.7170 ca       244 PS      -0.050500
   3894 CZ          4.2760  -26.8320    0.8670 ca       244 PS      -0.188800
   3895 CE2         4.3960  -27.9720    0.0470 ca       244 PS      -0.050500
   3896 CD2         5.2960  -27.9820   -1.0530 ca       244 PS      -0.270200
   3897 H21         9.1060  -27.6420   -2.8030 hc       244 PS      -0.016200
   3898 H22         8.0260  -28.9220   -2.2630 hc       244 PS      -0.016200
   3899 H1          7.9860  -26.0520   -2.1830 hc       244 PS      -0.005300
   3900 HD1         6.8560  -25.0220   -0.5130 ha       244 PS       0.124600
   3901 HE1         5.1960  -24.9320    1.4370 ha       244 PS       0.105800
   3902 HZ          3.5460  -26.8120    1.6670 ha       244 PS       0.124800
   3903 HE2         3.7360  -28.8120    0.2470 ha       244 PS       0.105800
   3904 HD2         5.2860  -28.7920   -1.7830 ha       244 PS       0.124600
   3905 C2          6.8460  -27.0020   -3.6430 c3       245 PS       0.031000
   3906 C1          5.9960  -25.8020   -4.1230 c3       245 PS       0.000400
   3907 CG          6.7260  -25.0120   -5.1930 ca       245 PS       0.250900
   3908 CD1         7.3260  -23.7620   -4.8530 ca       245 PS      -0.270200
   3909 CE1         7.8760  -22.8920   -5.8430 ca       245 PS      -0.050500
   3910 CZ          7.9360  -23.3620   -7.1530 ca       245 PS      -0.188800
   3911 CE2         7.4060  -24.6220   -7.4830 ca       245 PS      -0.050500
   3912 CD2         6.7360  -25.3920   -6.5330 ca       245 PS      -0.270200
   3913 H21         7.7160  -27.0620   -4.3230 hc       245 PS      -0.016200
   3914 H22         6.2160  -27.9020   -3.6530 hc       245 PS      -0.016200
   3915 H1          5.8460  -25.1320   -3.2630 hc       245 PS      -0.005300
   3916 HD1         7.4160  -23.3320   -3.8630 ha       245 PS       0.124600
   3917 HE1         8.1960  -21.9020   -5.5430 ha       245 PS       0.105800
   3918 HZ          8.3060  -22.7720   -7.9830 ha       245 PS       0.124800
   3919 HE2         7.4160  -25.0020   -8.5030 ha       245 PS       0.105800
   3920 HD2         6.2460  -26.2920   -6.9030 ha       245 PS       0.124600
   3921 C2          4.5860  -26.3720   -4.6230 c3       246 PS       0.031000
   3922 C1          3.4860  -25.2420   -4.7630 c3       246 PS       0.000400
   3923 CG          3.8860  -24.0520   -5.5730 ca       246 PS       0.250900
   3924 CD1         4.2860  -22.9020   -4.8830 ca       246 PS      -0.270200
   3925 CE1         4.6860  -21.7120   -5.6130 ca       246 PS      -0.050500
   3926 CZ          4.7160  -21.6720   -6.9530 ca       246 PS      -0.188800
   3927 CE2         4.2260  -22.8020   -7.6630 ca       246 PS      -0.050500
   3928 CD2         3.7460  -23.9520   -6.9830 ca       246 PS      -0.270200
   3929 H21         4.7160  -26.9020   -5.5830 hc       246 PS      -0.016200
   3930 H22         4.2260  -27.0220   -3.8130 hc       246 PS      -0.016200
   3931 H1          3.1760  -24.9020   -3.7630 hc       246 PS      -0.005300
   3932 HD1         4.4160  -22.9120   -3.8030 ha       246 PS       0.124600
   3933 HE1         5.0560  -20.8020   -5.1330 ha       246 PS       0.105800
   3934 HZ          5.1360  -20.8820   -7.5630 ha       246 PS       0.124800
   3935 HE2         4.2160  -22.8120   -8.7430 ha       246 PS       0.105800
   3936 HD2         3.3360  -24.7620   -7.5830 ha       246 PS       0.124600
   3937 C2          2.2060  -25.9320   -5.1830 c3       247 PS       0.031000
   3938 C1          0.9460  -25.1220   -5.5830 c3       247 PS       0.000400
   3939 CG         -0.2340  -26.0520   -5.9330 ca       247 PS       0.250900
   3940 CD1        -1.4640  -26.1020   -5.2030 ca       247 PS      -0.270200
   3941 CE1        -2.4540  -27.0120   -5.6330 ca       247 PS      -0.050500
   3942 CZ         -2.3340  -27.8220   -6.8130 ca       247 PS      -0.188800
   3943 CE2        -1.2040  -27.6320   -7.6130 ca       247 PS      -0.050500
   3944 CD2        -0.1340  -26.8020   -7.1930 ca       247 PS      -0.270200
   3945 H21         2.3060  -26.6120   -6.0330 hc       247 PS      -0.016200
   3946 H22         1.8960  -26.5820   -4.3630 hc       247 PS      -0.016200
   3947 H1          1.2360  -24.7120   -6.5530 hc       247 PS      -0.005300
   3948 HD1        -1.5940  -25.7520   -4.1830 ha       247 PS       0.124600
   3949 HE1        -3.3440  -27.1820   -5.0330 ha       247 PS       0.105800
   3950 HZ         -3.1240  -28.5420   -6.9630 ha       247 PS       0.124800
   3951 HE2        -1.0740  -28.1420   -8.5630 ha       247 PS       0.105800
   3952 HD2         0.7460  -26.6120   -7.8030 ha       247 PS       0.124600
   3953 C2          0.5260  -24.0320   -4.5130 c3       248 PS       0.031000
   3954 C1         -0.3940  -22.9820   -5.1630 c3       248 PS       0.000400
   3955 CG          0.4460  -21.8320   -5.8030 ca       248 PS       0.250900
   3956 CD1         0.2860  -21.3920   -7.1430 ca       248 PS      -0.270200
   3957 CE1         0.8760  -20.2120   -7.5630 ca       248 PS      -0.050500
   3958 CZ          1.6360  -19.3920   -6.7230 ca       248 PS      -0.188800
   3959 CE2         1.8160  -19.8120   -5.3330 ca       248 PS      -0.050500
   3960 CD2         1.2160  -20.9820   -4.9130 ca       248 PS      -0.270200
   3961 H21         0.0360  -24.5020   -3.6630 hc       248 PS      -0.016200
   3962 H22         1.4860  -23.5720   -4.2430 hc       248 PS      -0.016200
   3963 H1         -0.9540  -23.3620   -6.0230 hc       248 PS      -0.005300
   3964 HD1        -0.1940  -22.0020   -7.9030 ha       248 PS       0.124600
   3965 HE1         0.8260  -19.9620   -8.6130 ha       248 PS       0.105800
   3966 HZ          2.0760  -18.4420   -7.0230 ha       248 PS       0.124800
   3967 HE2         2.4060  -19.2020   -4.6430 ha       248 PS       0.105800
   3968 HD2         1.2660  -21.2920   -3.8730 ha       248 PS       0.124600
   3969 C2         -1.4340  -22.5820   -4.0730 c3       249 PS       0.031000
   3970 C1         -2.6440  -21.7520   -4.6030 c3       249 PS       0.000400
   3971 CG         -3.3240  -22.6220   -5.6530 ca       249 PS       0.250900
   3972 CD1        -3.3240  -22.1220   -7.0030 ca       249 PS      -0.270200
   3973 CE1        -4.1240  -22.7220   -7.9130 ca       249 PS      -0.050500
   3974 CZ         -4.8940  -23.8420   -7.6030 ca       249 PS      -0.188800
   3975 CE2        -4.7740  -24.3920   -6.3430 ca       249 PS      -0.050500
   3976 CD2        -4.0540  -23.7920   -5.3630 ca       249 PS      -0.270200
   3977 H21        -1.7040  -23.5220   -3.5730 hc       249 PS      -0.016200
   3978 H22        -0.8640  -21.9620   -3.3830 hc       249 PS      -0.016200
   3979 H1         -2.3740  -20.7920   -5.0530 hc       249 PS      -0.005300
   3980 HD1        -2.7940  -21.2220   -7.2930 ha       249 PS       0.124600
   3981 HE1        -4.1640  -22.3220   -8.9230 ha       249 PS       0.105800
   3982 HZ         -5.4940  -24.3420   -8.3530 ha       249 PS       0.124800
   3983 HE2        -5.2740  -25.3520   -6.2530 ha       249 PS       0.105800
   3984 HD2        -4.0240  -24.2420   -4.3730 ha       249 PS       0.124600
   3985 C2         -3.5040  -21.3720   -3.3830 c3       250 PS       0.031000
   3986 C1         -4.4340  -20.1120   -3.6130 c3       250 PS       0.000400
   3987 CG         -5.1140  -20.0520   -5.0630 ca       250 PS       0.250900
   3988 CD1        -4.9440  -18.9320   -5.8530 ca       250 PS      -0.270200
   3989 CE1        -5.7740  -18.7920   -7.0530 ca       250 PS      -0.050500
   3990 CZ         -6.5340  -19.8520   -7.5030 ca       250 PS      -0.188800
   3991 CE2        -6.7240  -20.9520   -6.6730 ca       250 PS      -0.050500
   3992 CD2        -5.9940  -21.0520   -5.5030 ca       250 PS      -0.270200
   3993 H21        -4.1540  -22.2320   -3.1630 hc       250 PS      -0.016200
   3994 H22        -2.9440  -21.2220   -2.4530 hc       250 PS      -0.016200
   3995 H1         -3.8240  -19.2020   -3.5630 hc       250 PS      -0.005300
   3996 HD1        -4.2440  -18.1420   -5.6130 ha       250 PS       0.124600
   3997 HE1        -5.6440  -17.9720   -7.7530 ha       250 PS       0.105800
   3998 HZ         -7.0840  -19.7420   -8.4330 ha       250 PS       0.124800
   3999 HE2        -7.4440  -21.7520   -6.8430 ha       250 PS       0.105800
   4000 HD2        -6.1040  -21.8920   -4.8130 ha       250 PS       0.124600
   4001 C2         -5.5440  -19.9820   -2.5930 c3       251 PS       0.031000
   4002 C1         -5.3240  -18.8620   -1.5430 c3       251 PS       0.000400
   4003 CG         -4.0140  -18.9120   -0.9030 ca       251 PS       0.250900
   4004 CD1        -3.1440  -17.8220   -1.0530 ca       251 PS      -0.270200
   4005 CE1        -1.8140  -17.8020   -0.5430 ca       251 PS      -0.050500
   4006 CZ         -1.3840  -18.8020    0.2670 ca       251 PS      -0.188800
   4007 CE2        -2.2140  -19.9820    0.4470 ca       251 PS      -0.050500
   4008 CD2        -3.5340  -20.0220   -0.1330 ca       251 PS      -0.270200
   4009 H21        -6.4940  -19.8320   -3.1130 hc       251 PS      -0.016200
   4010 H22        -5.5940  -20.9520   -2.0730 hc       251 PS      -0.016200
   4011 H1         -5.4540  -18.0220   -2.2330 hc       251 PS      -0.005300
   4012 HD1        -3.3740  -16.9720   -1.6930 ha       251 PS       0.124600
   4013 HE1        -1.1640  -16.9820   -0.8430 ha       251 PS       0.105800
   4014 HZ         -0.4140  -18.8220    0.7470 ha       251 PS       0.124800
   4015 HE2        -1.8440  -20.7920    1.0670 ha       251 PS       0.105800
   4016 HD2        -4.1740  -20.8920   -0.0330 ha       251 PS       0.124600
   4017 C2         -6.4440  -18.9020   -0.4830 c3       252 PS       0.031000
   4018 C1         -6.3840  -17.7420    0.5370 c3       252 PS       0.000400
   4019 CG         -7.0840  -18.1520    1.8670 ca       252 PS       0.250900
   4020 CD1        -6.4740  -18.0320    3.0670 ca       252 PS      -0.270200
   4021 CE1        -7.0940  -18.4820    4.2170 ca       252 PS      -0.050500
   4022 CZ         -8.4240  -18.9520    4.2570 ca       252 PS      -0.188800
   4023 CE2        -9.0840  -19.1220    2.9770 ca       252 PS      -0.050500
   4024 CD2        -8.4140  -18.6320    1.8270 ca       252 PS      -0.270200
   4025 H21        -7.4040  -18.8420   -1.0130 hc       252 PS      -0.016200
   4026 H22        -6.4040  -19.8920   -0.0030 hc       252 PS      -0.016200
   4027 H1         -5.3040  -17.6620    0.7270 hc       252 PS      -0.005300
   4028 HD1        -5.4740  -17.6120    2.9770 ha       252 PS       0.124600
   4029 HE1        -6.4940  -18.3820    5.1170 ha       252 PS       0.105800
   4030 HZ         -8.9540  -19.2120    5.1670 ha       252 PS       0.124800
   4031 HE2       -10.0940  -19.5020    2.9570 ha       252 PS       0.105800
   4032 HD2        -8.9440  -18.6320    0.8770 ha       252 PS       0.124600
   4033 C2         -6.9540  -16.3720   -0.0730 c3       253 PS       0.031000
   4034 C1         -6.4640  -15.0520    0.5370 c3       253 PS       0.000400
   4035 CG         -4.9140  -14.8720    0.3570 ca       253 PS       0.250900
   4036 CD1        -4.0440  -15.3520    1.3170 ca       253 PS      -0.270200
   4037 CE1        -2.6940  -15.0720    1.2270 ca       253 PS      -0.050500
   4038 CZ         -2.1140  -14.1820    0.3070 ca       253 PS      -0.188800
   4039 CE2        -2.9640  -13.7020   -0.6430 ca       253 PS      -0.050500
   4040 CD2        -4.3240  -14.0420   -0.6430 ca       253 PS      -0.270200
   4041 H21        -6.6240  -16.3720   -1.1230 hc       253 PS      -0.016200
   4042 H22        -8.0440  -16.4520   -0.1330 hc       253 PS      -0.016200
   4043 H1         -6.6640  -14.9520    1.6070 hc       253 PS      -0.005300
   4044 HD1        -4.4140  -15.8920    2.1870 ha       253 PS       0.124600
   4045 HE1        -2.1440  -15.3920    2.1070 ha       253 PS       0.105800
   4046 HZ         -1.0740  -13.8720    0.2470 ha       253 PS       0.124800
   4047 HE2        -2.5040  -13.0320   -1.3630 ha       253 PS       0.105800
   4048 HD2        -4.9640  -13.6920   -1.4430 ha       253 PS       0.124600
   4049 C2         -7.3240  -13.8820   -0.1130 c3       254 PS       0.031000
   4050 C1         -8.6440  -13.4820    0.5570 c3       254 PS       0.000400
   4051 CG         -9.6040  -14.6520    0.9170 ca       254 PS       0.250900
   4052 CD1        -9.7240  -14.9820    2.2470 ca       254 PS      -0.270200
   4053 CE1       -10.6840  -15.9420    2.6170 ca       254 PS      -0.050500
   4054 CZ        -11.5840  -16.4820    1.6370 ca       254 PS      -0.188800
   4055 CE2       -11.5440  -16.0920    0.2770 ca       254 PS      -0.050500
   4056 CD2       -10.4340  -15.2320   -0.0830 ca       254 PS      -0.270200
   4057 H21        -6.7040  -13.0020    0.0470 hc       254 PS      -0.016200
   4058 H22        -7.4640  -13.9420   -1.2030 hc       254 PS      -0.016200
   4059 H1         -8.2540  -12.9920    1.4670 hc       254 PS      -0.005300
   4060 HD1        -9.0540  -14.5720    2.9970 ha       254 PS       0.124600
   4061 HE1       -10.7040  -16.2420    3.6570 ha       254 PS       0.105800
   4062 HZ        -12.3740  -17.1320    1.9870 ha       254 PS       0.124800
   4063 HE2       -12.3040  -16.4620   -0.4030 ha       254 PS       0.105800
   4064 HD2       -10.3340  -14.9020   -1.1130 ha       254 PS       0.124600
   4065 C2         -9.1440  -12.2420   -0.2530 c3       255 PS       0.031000
   4066 C1         -9.9640  -11.1520    0.6070 c3       255 PS       0.000400
   4067 CG        -11.3340  -11.5920    0.7570 ca       255 PS       0.250900
   4068 CD1       -11.8340  -12.2620    1.8570 ca       255 PS      -0.270200
   4069 CE1       -13.1740  -12.5520    1.9970 ca       255 PS      -0.050500
   4070 CZ        -14.0540  -12.1820    1.0570 ca       255 PS      -0.188800
   4071 CE2       -13.6240  -11.8520   -0.2030 ca       255 PS      -0.050500
   4072 CD2       -12.2640  -11.4120   -0.3630 ca       255 PS      -0.270200
   4073 H21        -8.3540  -11.6620   -0.7430 hc       255 PS      -0.016200
   4074 H22        -9.7540  -12.6220   -1.0730 hc       255 PS      -0.016200
   4075 H1         -9.5840  -11.0420    1.6270 hc       255 PS      -0.005300
   4076 HD1       -11.1640  -12.5120    2.6670 ha       255 PS       0.124600
   4077 HE1       -13.5640  -12.9420    2.9270 ha       255 PS       0.105800
   4078 HZ        -15.0840  -12.5020    1.1770 ha       255 PS       0.124800
   4079 HE2       -14.3340  -11.7120   -1.0030 ha       255 PS       0.105800
   4080 HD2       -11.9740  -10.9620   -1.3030 ha       255 PS       0.124600
   4081 C2         -9.7740   -9.7320   -0.0730 c3       256 PS       0.031000
   4082 C1         -8.4240   -9.0120    0.0370 c3       256 PS       0.000400
   4083 CG         -8.6740   -7.6120    0.6870 ca       256 PS       0.250900
   4084 CD1        -7.6240   -7.0120    1.4470 ca       256 PS      -0.270200
   4085 CE1        -7.7040   -5.6320    1.8870 ca       256 PS      -0.050500
   4086 CZ         -8.8040   -4.7820    1.4570 ca       256 PS      -0.188800
   4087 CE2        -9.6940   -5.3320    0.5570 ca       256 PS      -0.050500
   4088 CD2        -9.6440   -6.7120    0.2470 ca       256 PS      -0.270200
   4089 H21       -10.0640   -9.9320   -1.1030 hc       256 PS      -0.016200
   4090 H22       -10.5840   -9.0920    0.3170 hc       256 PS      -0.016200
   4091 H1         -7.7640   -9.6120    0.6770 hc       256 PS      -0.005300
   4092 HD1        -6.6840   -7.4920    1.6870 ha       256 PS       0.124600
   4093 HE1        -6.8840   -5.1320    2.3870 ha       256 PS       0.105800
   4094 HZ         -8.7840   -3.7120    1.6570 ha       256 PS       0.124800
   4095 HE2       -10.5840   -4.8420    0.1770 ha       256 PS       0.105800
   4096 HD2       -10.4740   -7.0220   -0.3630 ha       256 PS       0.124600
   4097 C2         -7.7440   -8.8920   -1.3430 c3       257 PS       0.031000
   4098 C1         -6.2240   -8.3120   -1.4330 c3       257 PS       0.000400
   4099 CG         -5.2440   -9.0020   -0.4530 ca       257 PS       0.250900
   4100 CD1        -4.4040   -8.1620    0.3570 ca       257 PS      -0.270200
   4101 CE1        -3.7440   -8.6620    1.4170 ca       257 PS      -0.050500
   4102 CZ         -3.7640  -10.0220    1.7970 ca       257 PS      -0.188800
   4103 CE2        -4.5040  -10.8920    0.9970 ca       257 PS      -0.050500
   4104 CD2        -5.2540  -10.3920   -0.1430 ca       257 PS      -0.270200
   4105 H21        -7.5840   -9.9020   -1.7330 hc       257 PS      -0.016200
   4106 H22        -8.3940   -8.3720   -2.0630 hc       257 PS      -0.016200
   4107 H1         -6.2940   -7.3020   -0.9930 hc       257 PS      -0.005300
   4108 HD1        -4.2940   -7.1020    0.1570 ha       257 PS       0.124600
   4109 HE1        -3.0740   -7.9920    1.9570 ha       257 PS       0.105800
   4110 HZ         -3.1940  -10.3220    2.6670 ha       257 PS       0.124800
   4111 HE2        -4.5540  -11.9620    1.1570 ha       257 PS       0.105800
   4112 HD2        -5.9640  -11.0120   -0.6830 ha       257 PS       0.124600
   4113 C2         -5.5740   -8.2120   -2.8530 c3       258 PS       0.031000
   4114 C1         -6.4540   -7.5220   -3.9630 c3       258 PS       0.000400
   4115 CG         -5.8840   -7.5620   -5.3730 ca       258 PS       0.250900
   4116 CD1        -4.5940   -7.1620   -5.7230 ca       258 PS      -0.270200
   4117 CE1        -4.0940   -7.2020   -7.0330 ca       258 PS      -0.050500
   4118 CZ         -4.9540   -7.5320   -8.0730 ca       258 PS      -0.188800
   4119 CE2        -6.2840   -7.7720   -7.7830 ca       258 PS      -0.050500
   4120 CD2        -6.7540   -7.7620   -6.4430 ca       258 PS      -0.270200
   4121 H21        -4.5940   -7.7320   -2.7230 hc       258 PS      -0.016200
   4122 H22        -5.3740   -9.2020   -3.2630 hc       258 PS      -0.016200
   4123 H1         -7.4240   -8.0320   -4.0430 hc       258 PS      -0.005300
   4124 HD1        -3.8840   -6.8320   -4.9730 ha       258 PS       0.124600
   4125 HE1        -3.0540   -6.9620   -7.2130 ha       258 PS       0.105800
   4126 HZ         -4.4740   -7.3920   -9.0330 ha       258 PS       0.124800
   4127 HE2        -7.0640   -7.9420   -8.5230 ha       258 PS       0.105800
   4128 HD2        -7.7840   -8.0620   -6.2530 ha       258 PS       0.124600
   4129 C2         -6.9040   -6.0520   -3.5930 c3       259 PS       0.031000
   4130 C1         -8.2640   -5.6320   -4.2430 c3       259 PS       0.000400
   4131 CG         -8.2940   -4.1320   -4.1030 ca       259 PS       0.250900
   4132 CD1        -8.1840   -3.4920   -2.8530 ca       259 PS      -0.270200
   4133 CE1        -7.9040   -2.1220   -2.7430 ca       259 PS      -0.050500
   4134 CZ         -7.7640   -1.4120   -3.9130 ca       259 PS      -0.188800
   4135 CE2        -7.9440   -1.9520   -5.2230 ca       259 PS      -0.050500
   4136 CD2        -8.1540   -3.3420   -5.2730 ca       259 PS      -0.270200
   4137 H21        -7.0140   -5.9820   -2.5030 hc       259 PS      -0.016200
   4138 H22        -6.1140   -5.3620   -3.8930 hc       259 PS      -0.016200
   4139 H1         -8.1540   -5.8720   -5.3130 hc       259 PS      -0.005300
   4140 HD1        -8.2240   -4.0420   -1.9130 ha       259 PS       0.124600
   4141 HE1        -7.7940   -1.6920   -1.7430 ha       259 PS       0.105800
   4142 HZ         -7.3840   -0.3920   -3.8630 ha       259 PS       0.124800
   4143 HE2        -7.7540   -1.3120   -6.0830 ha       259 PS       0.105800
   4144 HD2        -8.2540   -3.8620   -6.2230 ha       259 PS       0.124600
   4145 C2         -9.4940   -6.2620   -3.5730 c3       260 PS       0.031000
   4146 C1        -10.8340   -5.4920   -3.7930 c3       260 PS       0.000400
   4147 CG        -10.9940   -5.1820   -5.2730 ca       260 PS       0.250900
   4148 CD1       -11.4040   -3.8620   -5.5930 ca       260 PS      -0.270200
   4149 CE1       -11.4740   -3.4120   -6.9330 ca       260 PS      -0.050500
   4150 CZ        -11.2640   -4.3420   -7.9230 ca       260 PS      -0.188800
   4151 CE2       -10.7640   -5.6020   -7.7030 ca       260 PS      -0.050500
   4152 CD2       -10.7240   -6.0920   -6.3630 ca       260 PS      -0.270200
   4153 H21        -9.5640   -7.2720   -4.0030 hc       260 PS      -0.016200
   4154 H22        -9.3240   -6.3820   -2.4930 hc       260 PS      -0.016200
   4155 H1        -10.6640   -4.5620   -3.2430 hc       260 PS      -0.005300
   4156 HD1       -11.5340   -3.1820   -4.7530 ha       260 PS       0.124600
   4157 HE1       -11.7640   -2.4120   -7.2230 ha       260 PS       0.105800
   4158 HZ        -11.2240   -3.9820   -8.9530 ha       260 PS       0.124800
   4159 HE2       -10.5240   -6.2420   -8.5530 ha       260 PS       0.105800
   4160 HD2       -10.3040   -7.0620   -6.1430 ha       260 PS       0.124600
   4161 C2        -12.0540   -6.3020   -3.2830 c3       261 PS       0.031000
   4162 C1        -13.3540   -5.4520   -2.9930 c3       261 PS       0.000400
   4163 CG        -13.1840   -4.4820   -1.8730 ca       261 PS       0.250900
   4164 CD1       -13.1940   -3.1320   -2.2330 ca       261 PS      -0.270200
   4165 CE1       -12.9440   -2.1220   -1.3430 ca       261 PS      -0.050500
   4166 CZ        -12.7440   -2.4620    0.0070 ca       261 PS      -0.188800
   4167 CE2       -12.7340   -3.8120    0.4770 ca       261 PS      -0.050500
   4168 CD2       -12.9040   -4.8420   -0.5230 ca       261 PS      -0.270200
   4169 H21       -12.2740   -7.0220   -4.0830 hc       261 PS      -0.016200
   4170 H22       -11.7540   -6.8720   -2.4030 hc       261 PS      -0.016200
   4171 H1        -13.3740   -4.8220   -3.8930 hc       261 PS      -0.005300
   4172 HD1       -13.3340   -2.8420   -3.2630 ha       261 PS       0.124600
   4173 HE1       -12.9540   -1.0620   -1.5530 ha       261 PS       0.105800
   4174 HZ        -12.5540   -1.6320    0.6770 ha       261 PS       0.124800
   4175 HE2       -12.4940   -4.0820    1.5070 ha       261 PS       0.105800
   4176 HD2       -12.8940   -5.8920   -0.2430 ha       261 PS       0.124600
   4177 C2        -14.5540   -6.3320   -2.8230 c3       262 PS       0.031000
   4178 C1        -15.6540   -6.2920   -3.9730 c3       262 PS       0.000400
   4179 CG        -14.9440   -6.5020   -5.3130 ca       262 PS       0.250900
   4180 CD1       -15.0240   -5.5320   -6.2430 ca       262 PS      -0.270200
   4181 CE1       -14.2940   -5.7120   -7.4330 ca       262 PS      -0.050500
   4182 CZ        -13.6040   -6.8920   -7.6730 ca       262 PS      -0.188800
   4183 CE2       -13.6840   -7.9720   -6.8530 ca       262 PS      -0.050500
   4184 CD2       -14.3740   -7.8320   -5.6330 ca       262 PS      -0.270200
   4185 H21       -14.2640   -7.3620   -2.5830 hc       262 PS      -0.016200
   4186 H22       -15.0940   -5.9420   -1.9530 hc       262 PS      -0.016200
   4187 H1        -16.0640   -5.2820   -4.0330 hc       262 PS      -0.005300
   4188 HD1       -15.5740   -4.6020   -6.0830 ha       262 PS       0.124600
   4189 HE1       -14.2240   -4.9220   -8.1830 ha       262 PS       0.105800
   4190 HZ        -13.0740   -7.0620   -8.6030 ha       262 PS       0.124800
   4191 HE2       -13.0840   -8.8220   -7.1630 ha       262 PS       0.105800
   4192 HD2       -14.3440   -8.5620   -4.8330 ha       262 PS       0.124600
   4193 C2        -16.8840   -7.2520   -3.9330 c3       263 PS       0.031000
   4194 C1        -17.8840   -6.9220   -2.7930 c3       263 PS       0.000400
   4195 CG        -17.8040   -7.8220   -1.6330 ca       263 PS       0.250900
   4196 CD1       -18.2440   -9.1620   -1.6830 ca       263 PS      -0.270200
   4197 CE1       -18.4940   -9.8820   -0.5130 ca       263 PS      -0.050500
   4198 CZ        -18.1540   -9.3620    0.7470 ca       263 PS      -0.188800
   4199 CE2       -17.5840   -8.0720    0.7970 ca       263 PS      -0.050500
   4200 CD2       -17.5340   -7.2820   -0.3730 ca       263 PS      -0.270200
   4201 H21       -17.2840   -7.1120   -4.9430 hc       263 PS      -0.016200
   4202 H22       -16.4740   -8.2620   -3.8130 hc       263 PS      -0.016200
   4203 H1        -17.7440   -5.8820   -2.4930 hc       263 PS      -0.005300
   4204 HD1       -18.4140   -9.6520   -2.6330 ha       263 PS       0.124600
   4205 HE1       -19.0040  -10.8320   -0.6630 ha       263 PS       0.105800
   4206 HZ        -18.1240  -10.0720    1.5770 ha       263 PS       0.124800
   4207 HE2       -17.3240   -7.5720    1.7270 ha       263 PS       0.105800
   4208 HD2       -17.3440   -6.2220   -0.3530 ha       263 PS       0.124600
   4209 C2        -19.4140   -7.0020   -3.3730 c3       264 PS       0.031000
   4210 C1        -19.9740   -5.7520   -4.1630 c3       264 PS       0.000400
   4211 CG        -20.4940   -4.6220   -3.2230 ca       264 PS       0.250900
   4212 CD1       -21.7940   -4.6920   -2.6830 ca       264 PS      -0.270200
   4213 CE1       -22.2740   -3.7020   -1.7530 ca       264 PS      -0.050500
   4214 CZ        -21.3740   -2.6120   -1.4630 ca       264 PS      -0.188800
   4215 CE2       -20.0440   -2.5720   -1.9330 ca       264 PS      -0.050500
   4216 CD2       -19.5840   -3.5820   -2.8130 ca       264 PS      -0.270200
   4217 H21       -19.5540   -7.9220   -3.9530 hc       264 PS      -0.016200
   4218 H22       -20.0540   -7.2120   -2.5030 hc       264 PS      -0.016200
   4219 H1        -19.2040   -5.3720   -4.8430 hc       264 PS      -0.005300
   4220 HD1       -22.4040   -5.5820   -2.7730 ha       264 PS       0.124600
   4221 HE1       -23.2240   -3.8120   -1.2330 ha       264 PS       0.105800
   4222 HZ        -21.7440   -1.8520   -0.7930 ha       264 PS       0.124800
   4223 HE2       -19.4540   -1.7220   -1.6230 ha       264 PS       0.105800
   4224 HD2       -18.6040   -3.5720   -3.2830 ha       264 PS       0.124600
   4225 C2        -21.1940   -6.1920   -5.0930 c3       265 PS       0.031000
   4226 C1        -20.9840   -6.8220   -6.5430 c3       265 PS       0.000400
   4227 CG        -19.8640   -6.1620   -7.1130 ca       265 PS       0.250900
   4228 CD1       -19.8840   -4.6720   -7.3630 ca       265 PS      -0.270200
   4229 CE1       -18.7140   -4.0320   -7.7330 ca       265 PS      -0.050500
   4230 CZ        -17.5640   -4.8620   -7.9830 ca       265 PS      -0.188800
   4231 CE2       -17.5940   -6.1920   -7.7530 ca       265 PS      -0.050500
   4232 CD2       -18.6740   -6.8920   -7.2030 ca       265 PS      -0.270200
   4233 H21       -21.7840   -6.8820   -4.4730 hc       265 PS      -0.016200
   4234 H22       -21.8540   -5.3220   -5.1230 hc       265 PS      -0.016200
   4235 H1        -20.9340   -7.9120   -6.4930 hc       265 PS      -0.005300
   4236 HD1       -20.7940   -4.0920   -7.3230 ha       265 PS       0.124600
   4237 HE1       -18.6940   -2.9620   -7.8830 ha       265 PS       0.105800
   4238 HZ        -16.8440   -4.3420   -8.6030 ha       265 PS       0.124800
   4239 HE2       -16.7240   -6.7920   -8.0330 ha       265 PS       0.105800
   4240 HD2       -18.5840   -7.9620   -7.0330 ha       265 PS       0.124600
   4241 C2        -22.3540   -6.6020   -7.4330 c3       266 PS       0.031000
   4242 C1        -23.6540   -7.1320   -6.7830 c3       266 PS       0.000400
   4243 CG        -23.7940   -8.7020   -6.6830 ca       266 PS       0.250900
   4244 CD1       -24.3740   -9.4520   -7.7230 ca       266 PS      -0.270200
   4245 CE1       -24.5040  -10.8520   -7.7030 ca       266 PS      -0.050500
   4246 CZ        -24.0640  -11.5820   -6.5730 ca       266 PS      -0.188800
   4247 CE2       -23.5440  -10.8820   -5.5030 ca       266 PS      -0.050500
   4248 CD2       -23.4440   -9.4620   -5.5330 ca       266 PS      -0.270200
   4249 H21       -22.5140   -5.5120   -7.4630 hc       266 PS      -0.016200
   4250 H22       -22.2340   -6.9920   -8.4430 hc       266 PS      -0.016200
   4251 H1        -23.6540   -6.9420   -5.7030 hc       266 PS      -0.005300
   4252 HD1       -24.7440   -8.9120   -8.5930 ha       266 PS       0.124600
   4253 HE1       -25.1140  -11.2820   -8.4930 ha       266 PS       0.105800
   4254 HZ        -24.0540  -12.6620   -6.5430 ha       266 PS       0.124800
   4255 HE2       -23.2040  -11.4620   -4.6630 ha       266 PS       0.105800
   4256 HD2       -23.0040   -8.9020   -4.7130 ha       266 PS       0.124600
   4257 C2        -24.8940   -6.3420   -7.4230 c3       267 PS       0.031000
   4258 C1        -26.2540   -6.6820   -6.5630 c3       267 PS       0.000400
   4259 CG        -26.1840   -5.9120   -5.1830 ca       267 PS       0.250900
   4260 CD1       -25.6540   -6.5520   -4.0430 ca       267 PS      -0.270200
   4261 CE1       -25.5640   -5.8220   -2.8530 ca       267 PS      -0.050500
   4262 CZ        -25.9640   -4.5720   -2.6830 ca       267 PS      -0.188800
   4263 CE2       -26.5240   -3.8820   -3.7830 ca       267 PS      -0.050500
   4264 CD2       -26.6640   -4.5720   -5.0330 ca       267 PS      -0.270200
   4265 H21       -24.6640   -5.2720   -7.3030 hc       267 PS      -0.016200
   4266 H22       -24.8840   -6.5320   -8.5030 hc       267 PS      -0.016200
   4267 H1        -26.2640   -7.7520   -6.3430 hc       267 PS      -0.005300
   4268 HD1       -25.4040   -7.6020   -4.1230 ha       267 PS       0.124600
   4269 HE1       -24.9540   -6.2220   -2.0530 ha       267 PS       0.105800
   4270 HZ        -25.7340   -4.1720   -1.6930 ha       267 PS       0.124800
   4271 HE2       -26.8940   -2.8720   -3.6730 ha       267 PS       0.105800
   4272 HD2       -27.1340   -4.0520   -5.8630 ha       267 PS       0.124600
   4273 C2        -27.4740   -6.3620   -7.4630 c3       268 PS       0.031000
   4274 C1        -28.7440   -7.1020   -6.8930 c3       268 PS       0.000400
   4275 CG        -30.0340   -6.2720   -6.8130 ca       268 PS       0.250900
   4276 CD1       -30.3540   -5.3620   -7.7930 ca       268 PS      -0.270200
   4277 CE1       -31.6140   -4.7620   -7.8030 ca       268 PS      -0.050500
   4278 CZ        -32.5140   -4.9620   -6.7630 ca       268 PS      -0.188800
   4279 CE2       -32.1840   -5.9220   -5.7830 ca       268 PS      -0.050500
   4280 CD2       -30.8940   -6.5720   -5.8230 ca       268 PS      -0.270200
   4281 H21       -27.6540   -5.2820   -7.4730 hc       268 PS      -0.016200
   4282 H22       -27.3440   -6.6920   -8.5030 hc       268 PS      -0.016200
   4283 H1        -28.5040   -7.3320   -5.8430 hc       268 PS      -0.005300
   4284 HD1       -29.6940   -5.1820   -8.6330 ha       268 PS       0.124600
   4285 HE1       -31.8840   -4.1120   -8.6330 ha       268 PS       0.105800
   4286 HZ        -33.4340   -4.3920   -6.7130 ha       268 PS       0.124800
   4287 HE2       -32.9340   -6.1120   -5.0230 ha       268 PS       0.105800
   4288 HD2       -30.5740   -7.3120   -5.0930 ha       268 PS       0.124600
   4289 C2        -28.9840   -8.4920   -7.5730 c3       269 PS       0.031000
   4290 C1        -28.1140   -9.6920   -6.8630 c3       269 PS       0.000400
   4291 CG        -28.3940   -9.7120   -5.3830 ca       269 PS       0.250900
   4292 CD1       -27.3540   -9.6620   -4.4530 ca       269 PS      -0.270200
   4293 CE1       -27.5640   -9.5220   -3.0530 ca       269 PS      -0.050500
   4294 CZ        -28.8640   -9.6820   -2.6030 ca       269 PS      -0.188800
   4295 CE2       -29.9240   -9.7420   -3.4630 ca       269 PS      -0.050500
   4296 CD2       -29.6940   -9.6920   -4.8830 ca       269 PS      -0.270200
   4297 H21       -30.0540   -8.7420   -7.4830 hc       269 PS      -0.016200
   4298 H22       -28.6740   -8.4620   -8.6230 hc       269 PS      -0.016200
   4299 H1        -27.0640   -9.4220   -6.9730 hc       269 PS      -0.005300
   4300 HD1       -26.3540   -9.5520   -4.8730 ha       269 PS       0.124600
   4301 HE1       -26.7440   -9.4720   -2.3430 ha       269 PS       0.105800
   4302 HZ        -29.0040   -9.6620   -1.5330 ha       269 PS       0.124800
   4303 HE2       -30.9340   -9.9020   -3.1030 ha       269 PS       0.105800
   4304 HD2       -30.5640   -9.7820   -5.5130 ha       269 PS       0.124600
   4305 C2        -28.3740  -11.1220   -7.4430 c3       270 PS       0.031000
   4306 C1        -27.7240  -12.2420   -6.5930 c3       270 PS       0.000400
   4307 CG        -28.3240  -13.5820   -6.8430 ca       270 PS       0.250900
   4308 CD1       -27.6240  -14.4620   -7.7230 ca       270 PS      -0.270200
   4309 CE1       -28.2840  -15.6920   -8.0330 ca       270 PS      -0.050500
   4310 CZ        -29.4740  -16.1420   -7.3830 ca       270 PS      -0.188800
   4311 CE2       -30.0640  -15.2420   -6.4330 ca       270 PS      -0.050500
   4312 CD2       -29.4640  -13.9720   -6.2030 ca       270 PS      -0.270200
   4313 H21       -29.4440  -11.3420   -7.5230 hc       270 PS      -0.016200
   4314 H22       -28.0440  -11.2220   -8.4830 hc       270 PS      -0.016200
   4315 H1        -26.6240  -12.2520   -6.6430 hc       270 PS      -0.005300
   4316 HD1       -26.6040  -14.2320   -8.0030 ha       270 PS       0.124600
   4317 HE1       -27.8040  -16.3620   -8.7330 ha       270 PS       0.105800
   4318 HZ        -29.8140  -17.1620   -7.5130 ha       270 PS       0.124800
   4319 HE2       -30.8740  -15.5720   -5.7930 ha       270 PS       0.105800
   4320 HD2       -29.9440  -13.3220   -5.4730 ha       270 PS       0.124600
   4321 C2          6.2660    9.4780    0.5970 c3       271 PS       0.031000
   4322 C1          5.9960   10.4480   -0.5730 c3       271 PS       0.000400
   4323 CG          7.2860   11.1880   -0.9730 ca       271 PS       0.250900
   4324 CD1         7.2260   12.5380   -1.1930 ca       271 PS      -0.270200
   4325 CE1         8.2960   13.2180   -1.8330 ca       271 PS      -0.050500
   4326 CZ          9.4160   12.5180   -2.2530 ca       271 PS      -0.188800
   4327 CE2         9.5460   11.1480   -1.8030 ca       271 PS      -0.050500
   4328 CD2         8.4860   10.5580   -1.2130 ca       271 PS      -0.270200
   4329 H21         6.7460   10.0280    1.4070 hc       271 PS      -0.016200
   4330 H22         5.2660    9.2080    0.9570 hc       271 PS      -0.016200
   4331 H1          5.3560   11.2680   -0.2230 hc       271 PS      -0.005300
   4332 HD1         6.2960   13.0780   -1.0630 ha       271 PS       0.124600
   4333 HE1         8.1360   14.2780   -2.0030 ha       271 PS       0.105800
   4334 HZ         10.1960   13.0180   -2.8230 ha       271 PS       0.124800
   4335 HE2        10.3960   10.5480   -2.1130 ha       271 PS       0.105800
   4336 HD2         8.5860    9.5080   -0.9230 ha       271 PS       0.124600
   4337 C2          5.2160    9.8780   -1.8130 c3       272 PS       0.031000
   4338 C1          3.6660    9.6380   -1.6130 c3       272 PS       0.000400
   4339 CG          2.9160   10.9680   -1.6530 ca       272 PS       0.250900
   4340 CD1         2.9460   11.6780   -2.8230 ca       272 PS      -0.270200
   4341 CE1         2.2860   12.9280   -2.8930 ca       272 PS      -0.050500
   4342 CZ          1.4360   13.3380   -1.8230 ca       272 PS      -0.188800
   4343 CE2         1.3160   12.5780   -0.6030 ca       272 PS      -0.050500
   4344 CD2         2.0960   11.4080   -0.5830 ca       272 PS      -0.270200
   4345 H21         5.3160   10.5380   -2.6830 hc       272 PS      -0.016200
   4346 H22         5.6760    8.9480   -2.1630 hc       272 PS      -0.016200
   4347 H1          3.5860    9.1780   -0.6230 hc       272 PS      -0.005300
   4348 HD1         3.5760   11.3480   -3.6530 ha       272 PS       0.124600
   4349 HE1         2.2960   13.5680   -3.7730 ha       272 PS       0.105800
   4350 HZ          0.7760   14.2080   -1.8730 ha       272 PS       0.124800
   4351 HE2         0.6460   12.8580    0.2070 ha       272 PS       0.105800
   4352 HD2         2.1260   10.7180    0.2570 ha       272 PS       0.124600
   4353 C2          2.9560    8.6580   -2.6130 c3       273 PS       0.031000
   4354 C1          3.5560    7.2080   -2.5430 c3       273 PS       0.000400
   4355 CG          3.6960    6.7280   -1.0930 ca       273 PS       0.250900
   4356 CD1         4.9460    6.6780   -0.4330 ca       273 PS      -0.270200
   4357 CE1         5.0660    6.3380    0.9070 ca       273 PS      -0.050500
   4358 CZ          3.9460    6.2680    1.7270 ca       273 PS      -0.188800
   4359 CE2         2.6260    6.2880    1.1170 ca       273 PS      -0.050500
   4360 CD2         2.5660    6.5880   -0.2630 ca       273 PS      -0.270200
   4361 H21         1.9460    8.6080   -2.1930 hc       273 PS      -0.016200
   4362 H22         2.9260    9.0580   -3.6330 hc       273 PS      -0.016200
   4363 H1          4.5060    7.2480   -3.0830 hc       273 PS      -0.005300
   4364 HD1         5.8560    6.9080   -0.9730 ha       273 PS       0.124600
   4365 HE1         6.0660    6.3880    1.3470 ha       273 PS       0.105800
   4366 HZ          4.0260    6.0580    2.7870 ha       273 PS       0.124800
   4367 HE2         1.7260    6.1880    1.7070 ha       273 PS       0.105800
   4368 HD2         1.5360    6.6180   -0.6030 ha       273 PS       0.124600
   4369 C2          2.6760    6.1780   -3.3530 c3       274 PS       0.031000
   4370 C1          3.4860    5.1380   -4.2330 c3       274 PS       0.000400
   4371 CG          4.0460    5.7480   -5.4830 ca       274 PS       0.250900
   4372 CD1         3.2360    6.3780   -6.4230 ca       274 PS      -0.270200
   4373 CE1         3.7860    6.8180   -7.6830 ca       274 PS      -0.050500
   4374 CZ          5.1460    6.4880   -7.9330 ca       274 PS      -0.188800
   4375 CE2         5.8760    5.7280   -7.0430 ca       274 PS      -0.050500
   4376 CD2         5.3160    5.3680   -5.8030 ca       274 PS      -0.270200
   4377 H21         1.9060    5.7380   -2.7030 hc       274 PS      -0.016200
   4378 H22         2.1560    6.8180   -4.0830 hc       274 PS      -0.016200
   4379 H1          4.3960    4.8580   -3.6830 hc       274 PS      -0.005300
   4380 HD1         2.2060    6.6080   -6.2030 ha       274 PS       0.124600
   4381 HE1         3.1960    7.4480   -8.3430 ha       274 PS       0.105800
   4382 HZ          5.6260    6.8480   -8.8330 ha       274 PS       0.124800
   4383 HE2         6.8860    5.3580   -7.2230 ha       274 PS       0.105800
   4384 HD2         5.8960    4.7980   -5.0830 ha       274 PS       0.124600
   4385 C2          2.7560    3.8380   -4.4630 c3       275 PS       0.031000
   4386 C1          3.5560    2.5280   -4.6230 c3       275 PS       0.000400
   4387 CG          4.4360    2.2280   -3.3830 ca       275 PS       0.250900
   4388 CD1         5.6060    1.4880   -3.6330 ca       275 PS      -0.270200
   4389 CE1         6.5460    1.2980   -2.6030 ca       275 PS      -0.050500
   4390 CZ          6.3360    1.8580   -1.3430 ca       275 PS      -0.188800
   4391 CE2         5.1660    2.6180   -1.0630 ca       275 PS      -0.050500
   4392 CD2         4.2260    2.7680   -2.0530 ca       275 PS      -0.270200
   4393 H21         1.9960    3.6580   -3.6930 hc       275 PS      -0.016200
   4394 H22         2.1760    3.9080   -5.3930 hc       275 PS      -0.016200
   4395 H1          4.2160    2.6480   -5.4830 hc       275 PS      -0.005300
   4396 HD1         5.7960    0.8780   -4.5130 ha       275 PS       0.124600
   4397 HE1         7.4660    0.7380   -2.6930 ha       275 PS       0.105800
   4398 HZ          7.0060    1.6380   -0.5230 ha       275 PS       0.124800
   4399 HE2         4.8760    3.0180   -0.0930 ha       275 PS       0.105800
   4400 HD2         3.3460    3.3780   -1.8830 ha       275 PS       0.124600
   4401 C2          2.6160    1.2880   -4.7930 c3       276 PS       0.031000
   4402 C1          2.6460    0.6680   -6.2630 c3       276 PS       0.000400
   4403 CG          3.8660   -0.2720   -6.4130 ca       276 PS       0.250900
   4404 CD1         3.9160   -1.4120   -5.6530 ca       276 PS      -0.270200
   4405 CE1         4.9360   -2.3120   -5.6230 ca       276 PS      -0.050500
   4406 CZ          6.0160   -2.0620   -6.4930 ca       276 PS      -0.188800
   4407 CE2         6.0260   -0.9020   -7.2130 ca       276 PS      -0.050500
   4408 CD2         4.9460    0.0280   -7.2030 ca       276 PS      -0.270200
   4409 H21         3.0060    0.4480   -4.2030 hc       276 PS      -0.016200
   4410 H22         1.6460    1.4080   -4.3030 hc       276 PS      -0.016200
   4411 H1          2.7860    1.5380   -6.9030 hc       276 PS      -0.005300
   4412 HD1         3.0360   -1.6420   -5.0630 ha       276 PS       0.124600
   4413 HE1         4.9260   -3.2120   -5.0230 ha       276 PS       0.105800
   4414 HZ          6.8360   -2.7620   -6.6330 ha       276 PS       0.124800
   4415 HE2         6.8460   -0.6720   -7.8830 ha       276 PS       0.105800
   4416 HD2         4.9660    0.9680   -7.7430 ha       276 PS       0.124600
   4417 C2          1.2960    0.0780   -6.7330 c3       277 PS       0.031000
   4418 C1         -0.0640    0.8980   -6.3730 c3       277 PS       0.000400
   4419 CG          0.1160    2.4280   -6.5830 ca       277 PS       0.250900
   4420 CD1         0.6060    2.9880   -7.8030 ca       277 PS      -0.270200
   4421 CE1         0.6660    4.3280   -8.0130 ca       277 PS      -0.050500
   4422 CZ          0.1660    5.1680   -7.0430 ca       277 PS      -0.188800
   4423 CE2        -0.3740    4.6380   -5.8530 ca       277 PS      -0.050500
   4424 CD2        -0.4640    3.2880   -5.6430 ca       277 PS      -0.270200
   4425 H21         1.3460   -0.1820   -7.7930 hc       277 PS      -0.016200
   4426 H22         1.1660   -0.8920   -6.2130 hc       277 PS      -0.016200
   4427 H1         -0.3740    0.6780   -5.3430 hc       277 PS      -0.005300
   4428 HD1         0.8560    2.3080   -8.6030 ha       277 PS       0.124600
   4429 HE1         1.0560    4.6880   -8.9630 ha       277 PS       0.105800
   4430 HZ          0.1260    6.2180   -7.2830 ha       277 PS       0.124800
   4431 HE2        -0.9540    5.2580   -5.1730 ha       277 PS       0.105800
   4432 HD2        -1.0840    3.0780   -4.7730 ha       277 PS       0.124600
   4433 C2         -1.3140    0.3680   -7.2130 c3       278 PS       0.031000
   4434 C1         -2.6940    0.4480   -6.4630 c3       278 PS       0.000400
   4435 CG         -3.1640   -0.8220   -5.8830 ca       278 PS       0.250900
   4436 CD1        -3.5640   -0.8420   -4.5430 ca       278 PS      -0.270200
   4437 CE1        -3.9340   -2.0220   -3.9330 ca       278 PS      -0.050500
   4438 CZ         -4.2340   -3.1020   -4.7230 ca       278 PS      -0.188800
   4439 CE2        -3.7540   -3.1020   -6.0730 ca       278 PS      -0.050500
   4440 CD2        -3.2040   -1.9620   -6.6530 ca       278 PS      -0.270200
   4441 H21        -1.2240    0.9580   -8.1330 hc       278 PS      -0.016200
   4442 H22        -1.1740   -0.6720   -7.5130 hc       278 PS      -0.016200
   4443 H1         -2.5340    1.2480   -5.7330 hc       278 PS      -0.005300
   4444 HD1        -3.4140    0.0280   -3.9130 ha       278 PS       0.124600
   4445 HE1        -4.1140   -2.1320   -2.8630 ha       278 PS       0.105800
   4446 HZ         -4.6040   -4.0320   -4.3030 ha       278 PS       0.124800
   4447 HE2        -3.7240   -4.0520   -6.5830 ha       278 PS       0.105800
   4448 HD2        -2.9540   -1.9320   -7.7130 ha       278 PS       0.124600
   4449 C2         -3.7540    0.9280   -7.5030 c3       279 PS       0.031000
   4450 C1         -4.8740    1.7980   -6.8130 c3       279 PS       0.000400
   4451 CG         -4.3440    3.1180   -6.2530 ca       279 PS       0.250900
   4452 CD1        -4.4940    3.4280   -4.8630 ca       279 PS      -0.270200
   4453 CE1        -4.2140    4.6480   -4.3730 ca       279 PS      -0.050500
   4454 CZ         -3.6240    5.6180   -5.2030 ca       279 PS      -0.188800
   4455 CE2        -3.4940    5.3780   -6.5430 ca       279 PS      -0.050500
   4456 CD2        -3.8040    4.1380   -7.0930 ca       279 PS      -0.270200
   4457 H21        -3.3240    1.5780   -8.2730 hc       279 PS      -0.016200
   4458 H22        -4.2340    0.1280   -8.0830 hc       279 PS      -0.016200
   4459 H1         -5.1740    1.2380   -5.9230 hc       279 PS      -0.005300
   4460 HD1        -4.9840    2.6780   -4.2430 ha       279 PS       0.124600
   4461 HE1        -4.5440    4.8880   -3.3630 ha       279 PS       0.105800
   4462 HZ         -3.4240    6.5980   -4.7830 ha       279 PS       0.124800
   4463 HE2        -3.1640    6.2180   -7.1430 ha       279 PS       0.105800
   4464 HD2        -3.8340    3.9680   -8.1630 ha       279 PS       0.124600
   4465 C2         -6.1940    1.8680   -7.6030 c3       280 PS       0.031000
   4466 C1         -7.3840    2.3280   -6.8030 c3       280 PS       0.000400
   4467 CG         -7.4340    3.8580   -6.6230 ca       280 PS       0.250900
   4468 CD1        -7.4040    4.4280   -5.3030 ca       280 PS      -0.270200
   4469 CE1        -7.3340    5.8480   -5.2130 ca       280 PS      -0.050500
   4470 CZ         -7.4140    6.6380   -6.3830 ca       280 PS      -0.188800
   4471 CE2        -7.4940    6.0580   -7.7030 ca       280 PS      -0.050500
   4472 CD2        -7.5040    4.6480   -7.8430 ca       280 PS      -0.270200
   4473 H21        -6.0840    2.4980   -8.4930 hc       280 PS      -0.016200
   4474 H22        -6.3540    0.8380   -7.9230 hc       280 PS      -0.016200
   4475 H1         -7.2240    1.9280   -5.7930 hc       280 PS      -0.005300
   4476 HD1        -7.2840    3.8180   -4.4130 ha       280 PS       0.124600
   4477 HE1        -7.3540    6.3380   -4.2430 ha       280 PS       0.105800
   4478 HZ         -7.4040    7.7280   -6.3630 ha       280 PS       0.124800
   4479 HE2        -7.4740    6.6380   -8.6230 ha       280 PS       0.105800
   4480 HD2        -7.5240    4.2280   -8.8430 ha       280 PS       0.124600
   4481 C2         -8.7940    1.8380   -7.3530 c3       281 PS       0.031000
   4482 C1        -10.0940    2.2980   -6.5930 c3       281 PS       0.000400
   4483 CG        -10.0540    1.8180   -5.1230 ca       281 PS       0.250900
   4484 CD1       -10.3140    2.7580   -4.0730 ca       281 PS      -0.270200
   4485 CE1       -10.5340    2.3180   -2.7530 ca       281 PS      -0.050500
   4486 CZ        -10.6840    0.9380   -2.4630 ca       281 PS      -0.188800
   4487 CE2       -10.4740    0.0480   -3.5230 ca       281 PS      -0.050500
   4488 CD2       -10.1840    0.4480   -4.8230 ca       281 PS      -0.270200
   4489 H21        -8.7940    2.2280   -8.3730 hc       281 PS      -0.016200
   4490 H22        -8.8340    0.7480   -7.5030 hc       281 PS      -0.016200
   4491 H1        -10.1040    3.3880   -6.6630 hc       281 PS      -0.005300
   4492 HD1       -10.3640    3.7980   -4.3630 ha       281 PS       0.124600
   4493 HE1       -10.7240    2.9880   -1.9230 ha       281 PS       0.105800
   4494 HZ        -11.0140    0.4880   -1.5330 ha       281 PS       0.124800
   4495 HE2       -10.4440   -1.0120   -3.3130 ha       281 PS       0.105800
   4496 HD2       -10.1040   -0.2620   -5.6330 ha       281 PS       0.124600
   4497 C2        -11.3140    1.8380   -7.4330 c3       282 PS       0.031000
   4498 C1        -12.7340    2.2480   -6.8930 c3       282 PS       0.000400
   4499 CG        -12.8040    3.6980   -6.5730 ca       282 PS       0.250900
   4500 CD1       -12.6240    4.6680   -7.5830 ca       282 PS      -0.270200
   4501 CE1       -12.6840    6.0580   -7.2930 ca       282 PS      -0.050500
   4502 CZ        -12.8440    6.4380   -5.9430 ca       282 PS      -0.188800
   4503 CE2       -12.9340    5.4880   -4.9130 ca       282 PS      -0.050500
   4504 CD2       -13.0240    4.1380   -5.2330 ca       282 PS      -0.270200
   4505 H21       -11.2340    2.2180   -8.4630 hc       282 PS      -0.016200
   4506 H22       -11.2640    0.7580   -7.6130 hc       282 PS      -0.016200
   4507 H1        -13.4140    2.0880   -7.7430 hc       282 PS      -0.005300
   4508 HD1       -12.3440    4.2480   -8.5530 ha       282 PS       0.124600
   4509 HE1       -12.4940    6.7980   -8.0630 ha       282 PS       0.105800
   4510 HZ        -12.8440    7.4880   -5.6830 ha       282 PS       0.124800
   4511 HE2       -13.1640    5.8280   -3.9130 ha       282 PS       0.105800
   4512 HD2       -13.2940    3.4280   -4.4630 ha       282 PS       0.124600
   4513 C2        -13.0840    1.2380   -5.7930 c3       283 PS       0.031000
   4514 C1        -14.6040    1.1780   -5.5430 c3       283 PS       0.000400
   4515 CG        -15.2140    0.3480   -6.6130 ca       283 PS       0.250900
   4516 CD1       -16.0740    0.9880   -7.5230 ca       283 PS      -0.270200
   4517 CE1       -16.8340    0.2280   -8.4630 ca       283 PS      -0.050500
   4518 CZ        -16.5440   -1.1520   -8.5830 ca       283 PS      -0.188800
   4519 CE2       -15.7940   -1.7820   -7.6030 ca       283 PS      -0.050500
   4520 CD2       -15.0440   -1.0620   -6.6130 ca       283 PS      -0.270200
   4521 H21       -12.6740    0.2580   -6.0830 hc       283 PS      -0.016200
   4522 H22       -12.5140    1.4580   -4.8930 hc       283 PS      -0.016200
   4523 H1        -15.0040    2.1980   -5.6130 hc       283 PS      -0.005300
   4524 HD1       -16.2240    2.0580   -7.4330 ha       283 PS       0.124600
   4525 HE1       -17.5440    0.7780   -9.0730 ha       283 PS       0.105800
   4526 HZ        -17.0940   -1.6620   -9.3630 ha       283 PS       0.124800
   4527 HE2       -15.7740   -2.8720   -7.6130 ha       283 PS       0.105800
   4528 HD2       -14.4240   -1.6320   -5.9230 ha       283 PS       0.124600
   4529 C2        -14.8940    0.6280   -4.1630 c3       284 PS       0.031000
   4530 C1        -16.3440    0.5580   -3.6030 c3       284 PS       0.000400
   4531 CG        -16.5040   -0.5120   -2.4930 ca       284 PS       0.250900
   4532 CD1       -16.9740   -0.1820   -1.2430 ca       284 PS      -0.270200
   4533 CE1       -17.1640   -1.1520   -0.2830 ca       284 PS      -0.050500
   4534 CZ        -16.8340   -2.4920   -0.6230 ca       284 PS      -0.188800
   4535 CE2       -16.3740   -2.7620   -1.8730 ca       284 PS      -0.050500
   4536 CD2       -16.1340   -1.7920   -2.8130 ca       284 PS      -0.270200
   4537 H21       -14.5540   -0.4120   -4.2130 hc       284 PS      -0.016200
   4538 H22       -14.3040    1.1280   -3.3830 hc       284 PS      -0.016200
   4539 H1        -16.4740    1.5080   -3.0630 hc       284 PS      -0.005300
   4540 HD1       -17.2340    0.8580   -1.0330 ha       284 PS       0.124600
   4541 HE1       -17.4840   -1.0320    0.7470 ha       284 PS       0.105800
   4542 HZ        -17.0140   -3.3620   -0.0130 ha       284 PS       0.124800
   4543 HE2       -16.2640   -3.7920   -2.1930 ha       284 PS       0.105800
   4544 HD2       -15.8240   -2.1620   -3.7830 ha       284 PS       0.124600
   4545 C2        -17.5040    0.5180   -4.6830 c3       285 PS       0.031000
   4546 C1        -18.9340    0.7480   -4.0730 c3       285 PS       0.000400
   4547 CG        -20.0940    0.1780   -4.9730 ca       285 PS       0.250900
   4548 CD1       -19.9140    0.1480   -6.4130 ca       285 PS      -0.270200
   4549 CE1       -20.8040   -0.5520   -7.2330 ca       285 PS      -0.050500
   4550 CZ        -21.8640   -1.2620   -6.6830 ca       285 PS      -0.188800
   4551 CE2       -21.9940   -1.2920   -5.3130 ca       285 PS      -0.050500
   4552 CD2       -21.1340   -0.5820   -4.4330 ca       285 PS      -0.270200
   4553 H21       -17.4140    1.3680   -5.3730 hc       285 PS      -0.016200
   4554 H22       -17.5940   -0.4420   -5.2130 hc       285 PS      -0.016200
   4555 H1        -18.9240    0.1080   -3.1830 hc       285 PS      -0.005300
   4556 HD1       -18.9540    0.4980   -6.8030 ha       285 PS       0.124600
   4557 HE1       -20.5840   -0.6920   -8.2930 ha       285 PS       0.105800
   4558 HZ        -22.5840   -1.8320   -7.2530 ha       285 PS       0.124800
   4559 HE2       -22.7140   -1.9020   -4.7730 ha       285 PS       0.105800
   4560 HD2       -21.3140   -0.8020   -3.3830 ha       285 PS       0.124600
   4561 C2        -19.2140    2.1880   -3.6630 c3       286 PS       0.031000
   4562 C1        -19.5540    3.3180   -4.7630 c3       286 PS       0.000400
   4563 CG        -18.3640    3.7780   -5.5530 ca       286 PS       0.250900
   4564 CD1       -18.4340    3.7380   -6.9630 ca       286 PS      -0.270200
   4565 CE1       -17.4640    4.4480   -7.7330 ca       286 PS      -0.050500
   4566 CZ        -16.4140    5.0980   -7.0230 ca       286 PS      -0.188800
   4567 CE2       -16.2740    5.0080   -5.6330 ca       286 PS      -0.050500
   4568 CD2       -17.2840    4.4280   -4.9130 ca       286 PS      -0.270200
   4569 H21       -20.1240    2.0780   -3.0730 hc       286 PS      -0.016200
   4570 H22       -18.4540    2.4580   -2.9130 hc       286 PS      -0.016200
   4571 H1        -20.2140    2.8780   -5.5230 hc       286 PS      -0.005300
   4572 HD1       -19.2840    3.3180   -7.5030 ha       286 PS       0.124600
   4573 HE1       -17.5040    4.5980   -8.8030 ha       286 PS       0.105800
   4574 HZ        -15.6740    5.6880   -7.5330 ha       286 PS       0.124800
   4575 HE2       -15.4440    5.4780   -5.1130 ha       286 PS       0.105800
   4576 HD2       -17.1840    4.5780   -3.8430 ha       286 PS       0.124600
   4577 C2        -20.3240    4.5280   -4.1230 c3       287 PS       0.031000
   4578 C1        -21.0240    5.5380   -5.0030 c3       287 PS       0.000400
   4579 CG        -22.1740    4.9680   -5.7430 ca       287 PS       0.250900
   4580 CD1       -22.1040    5.1180   -7.1730 ca       287 PS      -0.270200
   4581 CE1       -23.1140    4.5480   -7.9230 ca       287 PS      -0.050500
   4582 CZ        -24.2640    4.0580   -7.3330 ca       287 PS      -0.188800
   4583 CE2       -24.3040    3.8980   -5.9530 ca       287 PS      -0.050500
   4584 CD2       -23.3140    4.3980   -5.1430 ca       287 PS      -0.270200
   4585 H21       -21.1040    4.1180   -3.4730 hc       287 PS      -0.016200
   4586 H22       -19.6340    5.0880   -3.4730 hc       287 PS      -0.016200
   4587 H1        -20.3140    5.8980   -5.7530 hc       287 PS      -0.005300
   4588 HD1       -21.2240    5.5480   -7.6530 ha       287 PS       0.124600
   4589 HE1       -22.9640    4.6780   -8.9930 ha       287 PS       0.105800
   4590 HZ        -25.1040    3.6680   -7.9030 ha       287 PS       0.124800
   4591 HE2       -25.1140    3.3580   -5.4830 ha       287 PS       0.105800
   4592 HD2       -23.2740    4.2080   -4.0730 ha       287 PS       0.124600
   4593 C2        -21.4340    6.8680   -4.2630 c3       288 PS       0.031000
   4594 C1        -21.9340    7.9680   -5.2130 c3       288 PS       0.000400
   4595 CG        -20.7540    8.7480   -5.7630 ca       288 PS       0.250900
   4596 CD1       -20.2940    8.5280   -7.1030 ca       288 PS      -0.270200
   4597 CE1       -19.3040    9.3780   -7.5830 ca       288 PS      -0.050500
   4598 CZ        -18.6240   10.2580   -6.7630 ca       288 PS      -0.188800
   4599 CE2       -19.1640   10.5280   -5.4630 ca       288 PS      -0.050500
   4600 CD2       -20.1740    9.7080   -4.9130 ca       288 PS      -0.270200
   4601 H21       -22.1840    6.5980   -3.5130 hc       288 PS      -0.016200
   4602 H22       -20.5640    7.1680   -3.6630 hc       288 PS      -0.016200
   4603 H1        -22.3640    7.4780   -6.0930 hc       288 PS      -0.005300
   4604 HD1       -20.7840    7.8080   -7.7630 ha       288 PS       0.124600
   4605 HE1       -19.0040    9.2280   -8.6230 ha       288 PS       0.105800
   4606 HZ        -17.8640   10.9080   -7.1630 ha       288 PS       0.124800
   4607 HE2       -18.8640   11.3680   -4.8430 ha       288 PS       0.105800
   4608 HD2       -20.6140    9.8780   -3.9230 ha       288 PS       0.124600
   4609 C2        -23.0540    8.9480   -4.4930 c3       289 PS       0.031000
   4610 C1        -23.7540   10.1080   -5.3230 c3       289 PS       0.000400
   4611 CG        -22.8640   11.2980   -5.6530 ca       289 PS       0.250900
   4612 CD1       -22.3440   11.5080   -6.8730 ca       289 PS      -0.270200
   4613 CE1       -21.6740   12.6880   -7.2530 ca       289 PS      -0.050500
   4614 CZ        -21.5340   13.6680   -6.3230 ca       289 PS      -0.188800
   4615 CE2       -21.9340   13.4580   -5.0130 ca       289 PS      -0.050500
   4616 CD2       -22.5940   12.2380   -4.6230 ca       289 PS      -0.270200
   4617 H21       -23.8040    8.2780   -4.0530 hc       289 PS      -0.016200
   4618 H22       -22.5040    9.4880   -3.7130 hc       289 PS      -0.016200
   4619 H1        -24.0640    9.6380   -6.2630 hc       289 PS      -0.005300
   4620 HD1       -22.4740   10.6880   -7.5730 ha       289 PS       0.124600
   4621 HE1       -21.6340   12.8580   -8.3230 ha       289 PS       0.105800
   4622 HZ        -21.0640   14.6080   -6.6230 ha       289 PS       0.124800
   4623 HE2       -21.8040   14.2380   -4.2630 ha       289 PS       0.105800
   4624 HD2       -23.0240   12.0280   -3.6430 ha       289 PS       0.124600
   4625 C2        -25.1140   10.4480   -4.5030 c3       290 PS       0.031000
   4626 C1        -25.8940   11.6680   -5.0130 c3       290 PS       0.000400
   4627 CG        -27.0940   11.2480   -5.8930 ca       290 PS       0.250900
   4628 CD1       -27.0340   11.3380   -7.2630 ca       290 PS      -0.270200
   4629 CE1       -28.0640   10.8380   -8.0630 ca       290 PS      -0.050500
   4630 CZ        -29.2440   10.3180   -7.4330 ca       290 PS      -0.188800
   4631 CE2       -29.3640   10.3280   -6.0330 ca       290 PS      -0.050500
   4632 CD2       -28.2640   10.7680   -5.3130 ca       290 PS      -0.270200
   4633 H21       -25.8140    9.6180   -4.6030 hc       290 PS      -0.016200
   4634 H22       -24.8940   10.5980   -3.4430 hc       290 PS      -0.016200
   4635 H1        -25.3040   12.3380   -5.6530 hc       290 PS      -0.005300
   4636 HD1       -26.1440   11.6980   -7.7730 ha       290 PS       0.124600
   4637 HE1       -27.8640   10.7280   -9.1230 ha       290 PS       0.105800
   4638 HZ        -29.9940    9.7980   -8.0230 ha       290 PS       0.124800
   4639 HE2       -30.2340    9.8980   -5.5430 ha       290 PS       0.105800
   4640 HD2       -28.2440   10.7480   -4.2230 ha       290 PS       0.124600
   4641 C2        -26.2040   12.6180   -3.8930 c3       291 PS       0.031000
   4642 C1        -27.0340   13.8080   -4.2930 c3       291 PS       0.000400
   4643 CG        -26.4640   14.5880   -5.4330 ca       291 PS       0.250900
   4644 CD1       -25.1240   15.1680   -5.4330 ca       291 PS      -0.270200
   4645 CE1       -24.5640   15.7880   -6.5630 ca       291 PS      -0.050500
   4646 CZ        -25.2340   15.7680   -7.7430 ca       291 PS      -0.188800
   4647 CE2       -26.5040   15.1380   -7.8230 ca       291 PS      -0.050500
   4648 CD2       -27.0840   14.5180   -6.7330 ca       291 PS      -0.270200
   4649 H21       -26.7940   12.1880   -3.0730 hc       291 PS      -0.016200
   4650 H22       -25.2740   13.0680   -3.5030 hc       291 PS      -0.016200
   4651 H1        -28.0040   13.3980   -4.5930 hc       291 PS      -0.005300
   4652 HD1       -24.6040   15.2880   -4.4830 ha       291 PS       0.124600
   4653 HE1       -23.6440   16.3580   -6.5130 ha       291 PS       0.105800
   4654 HZ        -24.8340   16.3680   -8.5530 ha       291 PS       0.124800
   4655 HE2       -27.0440   15.2780   -8.7530 ha       291 PS       0.105800
   4656 HD2       -28.0240   14.0080   -6.9030 ha       291 PS       0.124600
   4657 C2        -27.3040   14.6780   -2.9430 c3       292 PS       0.031000
   4658 C1        -28.4740   15.7280   -3.0930 c3       292 PS       0.000400
   4659 CG        -29.1940   15.9780   -1.7930 ca       292 PS       0.250900
   4660 CD1       -30.4940   15.4680   -1.5630 ca       292 PS      -0.270200
   4661 CE1       -31.1040   15.6480   -0.2930 ca       292 PS      -0.050500
   4662 CZ        -30.3940   16.3180    0.7070 ca       292 PS      -0.188800
   4663 CE2       -29.1440   16.8980    0.4770 ca       292 PS      -0.050500
   4664 CD2       -28.5340   16.7280   -0.7630 ca       292 PS      -0.270200
   4665 H21       -27.6740   14.1180   -2.0730 hc       292 PS      -0.016200
   4666 H22       -26.3940   15.2180   -2.6530 hc       292 PS      -0.016200
   4667 H1        -29.2440   15.2680   -3.7130 hc       292 PS      -0.005300
   4668 HD1       -31.0540   14.9580   -2.3430 ha       292 PS       0.124600
   4669 HE1       -32.1140   15.2580   -0.1630 ha       292 PS       0.105800
   4670 HZ        -30.8540   16.4980    1.6770 ha       292 PS       0.124800
   4671 HE2       -28.7440   17.5280    1.2670 ha       292 PS       0.105800
   4672 HD2       -27.5340   17.1080   -0.9530 ha       292 PS       0.124600
   4673 C2        -27.9040   17.0180   -3.8230 c3       293 PS       0.031000
   4674 C1        -29.0340   18.0680   -4.1830 c3       293 PS       0.000400
   4675 CG        -29.9140   17.4380   -5.3230 ca       293 PS       0.250900
   4676 CD1       -29.2540   16.9680   -6.5230 ca       293 PS      -0.270200
   4677 CE1       -29.9340   16.3080   -7.5430 ca       293 PS      -0.050500
   4678 CZ        -31.3040   16.0380   -7.4130 ca       293 PS      -0.188800
   4679 CE2       -32.0040   16.5780   -6.3230 ca       293 PS      -0.050500
   4680 CD2       -31.2740   17.2480   -5.2830 ca       293 PS      -0.270200
   4681 H21       -27.2240   17.4980   -3.1030 hc       293 PS      -0.016200
   4682 H22       -27.3640   16.6580   -4.7030 hc       293 PS      -0.016200
   4683 H1        -29.5340   18.1580   -3.2130 hc       293 PS      -0.005300
   4684 HD1       -28.1940   17.1280   -6.7130 ha       293 PS       0.124600
   4685 HE1       -29.4240   15.9080   -8.4130 ha       293 PS       0.105800
   4686 HZ        -31.8540   15.4580   -8.1430 ha       293 PS       0.124800
   4687 HE2       -33.0540   16.3380   -6.1930 ha       293 PS       0.105800
   4688 HD2       -31.7640   17.4980   -4.3530 ha       293 PS       0.124600
   4689 C2        -28.4840   19.5080   -4.5130 c3       294 PS       0.031000
   4690 C1        -29.5540   20.4980   -5.0630 c3       294 PS       0.000400
   4691 CG        -28.9340   21.6180   -5.8530 ca       294 PS       0.250900
   4692 CD1       -29.0840   21.5880   -7.2330 ca       294 PS      -0.270200
   4693 CE1       -28.7240   22.6780   -8.0030 ca       294 PS      -0.050500
   4694 CZ        -28.1140   23.7680   -7.3830 ca       294 PS      -0.188800
   4695 CE2       -27.8940   23.8080   -6.0430 ca       294 PS      -0.050500
   4696 CD2       -28.2540   22.6980   -5.2630 ca       294 PS      -0.270200
   4697 H21       -27.9540   19.9180   -3.6530 hc       294 PS      -0.016200
   4698 H22       -27.9040   19.4580   -5.4330 hc       294 PS      -0.016200
   4699 H1        -30.1140   19.8880   -5.7830 hc       294 PS      -0.005300
   4700 HD1       -29.7440   20.8380   -7.6630 ha       294 PS       0.124600
   4701 HE1       -28.9440   22.6980   -9.0730 ha       294 PS       0.105800
   4702 HZ        -27.8540   24.6780   -7.9230 ha       294 PS       0.124800
   4703 HE2       -27.6040   24.7480   -5.5830 ha       294 PS       0.105800
   4704 HD2       -28.1140   22.6680   -4.1930 ha       294 PS       0.124600
   4705 C2        -30.5240   20.9680   -3.8530 c3       295 PS       0.031000
   4706 C1        -31.9240   21.5680   -4.1130 c3       295 PS       0.000400
   4707 CG        -32.6140   21.0480   -5.4130 ca       295 PS       0.250900
   4708 CD1       -33.5340   19.9880   -5.3030 ca       295 PS      -0.270200
   4709 CE1       -34.1640   19.4280   -6.3830 ca       295 PS      -0.050500
   4710 CZ        -33.9240   19.9780   -7.6330 ca       295 PS      -0.188800
   4711 CE2       -33.0040   21.0280   -7.8230 ca       295 PS      -0.050500
   4712 CD2       -32.3340   21.5580   -6.6930 ca       295 PS      -0.270200
   4713 H21       -30.6940   20.0080   -3.3430 hc       295 PS      -0.016200
   4714 H22       -29.9140   21.5880   -3.1830 hc       295 PS      -0.016200
   4715 H1        -32.5340   21.3180   -3.2330 hc       295 PS      -0.005300
   4716 HD1       -33.7540   19.6080   -4.3030 ha       295 PS       0.124600
   4717 HE1       -34.9140   18.6480   -6.2330 ha       295 PS       0.105800
   4718 HZ        -34.5240   19.5180   -8.4130 ha       295 PS       0.124800
   4719 HE2       -32.8340   21.5180   -8.7830 ha       295 PS       0.105800
   4720 HD2       -31.6740   22.4180   -6.7830 ha       295 PS       0.124600
   4721 C2        -31.8040   23.1380   -3.9930 c3       296 PS       0.031000
   4722 C1        -33.1740   23.9680   -3.8430 c3       296 PS       0.000400
   4723 CG        -33.8140   24.1280   -5.2230 ca       296 PS       0.250900
   4724 CD1       -33.2540   25.0080   -6.1330 ca       296 PS      -0.270200
   4725 CE1       -33.8240   25.1280   -7.4030 ca       296 PS      -0.050500
   4726 CZ        -34.9340   24.3980   -7.7930 ca       296 PS      -0.188800
   4727 CE2       -35.5540   23.5680   -6.9230 ca       296 PS      -0.050500
   4728 CD2       -34.9840   23.4180   -5.6230 ca       296 PS      -0.270200
   4729 H21       -31.1940   23.4080   -3.1130 hc       296 PS      -0.016200
   4730 H22       -31.1940   23.5080   -4.8330 hc       296 PS      -0.016200
   4731 H1        -33.7740   23.3480   -3.1730 hc       296 PS      -0.005300
   4732 HD1       -32.3540   25.5880   -5.9430 ha       296 PS       0.124600
   4733 HE1       -33.3040   25.7380   -8.1230 ha       296 PS       0.105800
   4734 HZ        -35.3240   24.4280   -8.8030 ha       296 PS       0.124800
   4735 HE2       -36.4140   22.9680   -7.2230 ha       296 PS       0.105800
   4736 HD2       -35.4840   22.7580   -4.9230 ha       296 PS       0.124600
   4737 C2        -33.0240   25.2580   -3.1030 c3       297 PS       0.031000
   4738 C1        -34.3840   26.0280   -2.9030 c3       297 PS       0.000400
   4739 CG        -35.6340   25.1580   -2.6330 ca       297 PS       0.250900
   4740 CD1       -36.7840   25.0980   -3.4730 ca       297 PS      -0.270200
   4741 CE1       -37.9740   24.5380   -3.1030 ca       297 PS      -0.050500
   4742 CZ        -37.9940   23.7680   -1.9530 ca       297 PS      -0.188800
   4743 CE2       -36.7940   23.5880   -1.1730 ca       297 PS      -0.050500
   4744 CD2       -35.6540   24.4480   -1.4830 ca       297 PS      -0.270200
   4745 H21       -32.6040   25.0080   -2.1330 hc       297 PS      -0.016200
   4746 H22       -32.2840   25.8880   -3.6130 hc       297 PS      -0.016200
   4747 H1        -34.4640   26.5080   -3.8830 hc       297 PS      -0.005300
   4748 HD1       -36.7040   25.6680   -4.3930 ha       297 PS       0.124600
   4749 HE1       -38.7740   24.6180   -3.8330 ha       297 PS       0.105800
   4750 HZ        -38.7840   23.0780   -1.6430 ha       297 PS       0.124800
   4751 HE2       -36.8140   23.0380   -0.2330 ha       297 PS       0.105800
   4752 HD2       -34.8040   24.4680   -0.8030 ha       297 PS       0.124600
   4753 C2        -34.2040   27.1080   -1.8130 c3       298 PS       0.031000
   4754 C1        -35.3840   28.0780   -1.8630 c3       298 PS       0.000400
   4755 CG        -36.1840   27.9380   -0.5930 ca       298 PS       0.250900
   4756 CD1       -37.3640   27.2380   -0.6430 ca       298 PS      -0.270200
   4757 CE1       -38.1840   27.0180    0.4670 ca       298 PS      -0.050500
   4758 CZ        -37.7840   27.5280    1.6770 ca       298 PS      -0.188800
   4759 CE2       -36.6040   28.2880    1.8170 ca       298 PS      -0.050500
   4760 CD2       -35.7640   28.4080    0.6670 ca       298 PS      -0.270200
   4761 H21       -34.0740   26.7080   -0.7930 hc       298 PS      -0.016200
   4762 H22       -33.2140   27.5380   -2.0530 hc       298 PS      -0.016200
   4763 H1        -35.9940   27.7480   -2.7130 hc       298 PS      -0.005300
   4764 HD1       -37.8140   26.8980   -1.5730 ha       298 PS       0.124600
   4765 HE1       -39.0740   26.4180    0.3170 ha       298 PS       0.105800
   4766 HZ        -38.3940   27.3480    2.5670 ha       298 PS       0.124800
   4767 HE2       -36.2540   28.5880    2.8070 ha       298 PS       0.105800
   4768 HD2       -34.8440   28.9680    0.8270 ha       298 PS       0.124600
   4769 C2        -34.8840   29.5080   -2.1530 c3       299 PS       0.031000
   4770 C1        -35.9640   30.4180   -2.7530 c3       299 PS       0.000400
   4771 CG        -37.0740   30.7380   -1.7330 ca       299 PS       0.250900
   4772 CD1       -36.8040   31.4280   -0.5430 ca       299 PS      -0.270200
   4773 CE1       -37.7640   31.9580    0.3170 ca       299 PS      -0.050500
   4774 CZ        -39.1240   31.7380   -0.0530 ca       299 PS      -0.188800
   4775 CE2       -39.4440   30.9080   -1.0930 ca       299 PS      -0.050500
   4776 CD2       -38.4240   30.3980   -1.9530 ca       299 PS      -0.270200
   4777 H21       -34.5740   29.8480   -1.1530 hc       299 PS      -0.016200
   4778 H22       -34.0040   29.5580   -2.7930 hc       299 PS      -0.016200
   4779 H1        -36.4340   29.7680   -3.5030 hc       299 PS      -0.005300
   4780 HD1       -35.8040   31.6380   -0.1630 ha       299 PS       0.124600
   4781 HE1       -37.4840   32.5580    1.1670 ha       299 PS       0.105800
   4782 HZ        -39.8640   32.1880    0.5970 ha       299 PS       0.124800
   4783 HE2       -40.4740   30.6880   -1.3830 ha       299 PS       0.105800
   4784 HD2       -38.5840   29.8480   -2.8830 ha       299 PS       0.124600
   4785 C2        -35.3240   31.6080   -3.3330 c3       300 PS       0.031000
   4786 C1        -36.3140   32.6580   -3.7930 c3       300 PS       0.000400
   4787 CG        -37.2840   32.2380   -4.8830 ca       300 PS       0.250900
   4788 CD1       -38.6040   32.5980   -4.6430 ca       300 PS      -0.270200
   4789 CE1       -39.5640   32.2980   -5.6430 ca       300 PS      -0.050500
   4790 CZ        -39.2540   31.6780   -6.8630 ca       300 PS      -0.188800
   4791 CE2       -37.9040   31.2180   -7.0530 ca       300 PS      -0.050500
   4792 CD2       -36.9540   31.5280   -6.0330 ca       300 PS      -0.270200
   4793 H21       -34.7440   32.1580   -2.5730 hc       300 PS      -0.016200
   4794 H22       -34.5440   31.3580   -4.0630 hc       300 PS      -0.016200
   4795 H1        -35.8040   33.5880   -4.0730 hc       300 PS      -0.005300
   4796 HD1       -38.9040   33.1780   -3.7730 ha       300 PS       0.124600
   4797 HE1       -40.6040   32.5880   -5.4930 ha       300 PS       0.105800
   4798 HZ        -40.0340   31.5280   -7.5930 ha       300 PS       0.124800
   4799 HE2       -37.5140   30.5580   -7.8230 ha       300 PS       0.105800
   4800 HD2       -35.9140   31.2180   -6.0930 ha       300 PS       0.124600
   4801 C2         13.0460   22.1380   -1.7930 c3       301 PS       0.031000
   4802 C1         13.7160   22.7380   -0.4530 c3       301 PS       0.000400
   4803 CG         14.2960   21.6380    0.3770 ca       301 PS       0.250900
   4804 CD1        13.4660   21.1880    1.4170 ca       301 PS      -0.270200
   4805 CE1        13.8860   20.1580    2.1770 ca       301 PS      -0.050500
   4806 CZ         15.0660   19.4880    1.9170 ca       301 PS      -0.188800
   4807 CE2        15.9160   19.9080    0.8570 ca       301 PS      -0.050500
   4808 CD2        15.5560   21.0480    0.1270 ca       301 PS      -0.270200
   4809 H21        13.7360   21.5380   -2.3830 hc       301 PS      -0.016200
   4810 H22        12.2660   21.4380   -1.4730 hc       301 PS      -0.016200
   4811 H1         12.8460   23.1080    0.0970 hc       301 PS      -0.005300
   4812 HD1        12.4660   21.5880    1.5470 ha       301 PS       0.124600
   4813 HE1        13.2960   19.8380    3.0370 ha       301 PS       0.105800
   4814 HZ         15.3960   18.7080    2.5870 ha       301 PS       0.124800
   4815 HE2        16.8460   19.3580    0.7270 ha       301 PS       0.105800
   4816 HD2        16.2360   21.5180   -0.5830 ha       301 PS       0.124600
   4817 C2         14.6560   23.9880   -0.7530 c3       302 PS       0.031000
   4818 C1         13.9260   25.0680   -1.7730 c3       302 PS       0.000400
   4819 CG         14.2360   26.5280   -1.4930 ca       302 PS       0.250900
   4820 CD1        13.1460   27.3980   -1.4530 ca       302 PS      -0.270200
   4821 CE1        13.2960   28.7080   -1.3830 ca       302 PS      -0.050500
   4822 CZ         14.5160   29.2680   -1.1030 ca       302 PS      -0.188800
   4823 CE2        15.6360   28.4680   -1.0530 ca       302 PS      -0.050500
   4824 CD2        15.5060   27.0580   -1.2430 ca       302 PS      -0.270200
   4825 H21        14.9660   24.3680    0.2370 hc       302 PS      -0.016200
   4826 H22        15.5860   23.5880   -1.1730 hc       302 PS      -0.016200
   4827 H1         12.8660   24.8080   -1.7830 hc       302 PS      -0.005300
   4828 HD1        12.1660   26.9380   -1.4330 ha       302 PS       0.124600
   4829 HE1        12.3860   29.2980   -1.3030 ha       302 PS       0.105800
   4830 HZ         14.6360   30.2980   -0.7530 ha       302 PS       0.124800
   4831 HE2        16.6160   28.8680   -0.8130 ha       302 PS       0.105800
   4832 HD2        16.3660   26.3980   -1.2830 ha       302 PS       0.124600
   4833 C2         14.4760   24.7980   -3.2230 c3       303 PS       0.031000
   4834 C1         13.6060   25.2980   -4.4630 c3       303 PS       0.000400
   4835 CG         14.2960   24.9680   -5.8130 ca       303 PS       0.250900
   4836 CD1        14.6960   26.0580   -6.6730 ca       303 PS      -0.270200
   4837 CE1        15.3960   25.7580   -7.8530 ca       303 PS      -0.050500
   4838 CZ         15.8360   24.4580   -8.0330 ca       303 PS      -0.188800
   4839 CE2        15.3260   23.3780   -7.3330 ca       303 PS      -0.050500
   4840 CD2        14.5660   23.6480   -6.2230 ca       303 PS      -0.270200
   4841 H21        15.4960   25.1780   -3.1830 hc       303 PS      -0.016200
   4842 H22        14.6460   23.7180   -3.3530 hc       303 PS      -0.016200
   4843 H1         13.5460   26.3880   -4.4230 hc       303 PS      -0.005300
   4844 HD1        14.4560   27.0680   -6.3530 ha       303 PS       0.124600
   4845 HE1        15.7060   26.5480   -8.5230 ha       303 PS       0.105800
   4846 HZ         16.6160   24.2980   -8.7730 ha       303 PS       0.124800
   4847 HE2        15.6560   22.3880   -7.6530 ha       303 PS       0.105800
   4848 HD2        14.3660   22.8180   -5.5430 ha       303 PS       0.124600
   4849 C2         12.1860   24.6680   -4.2930 c3       304 PS       0.031000
   4850 C1         11.3660   24.7080   -5.6430 c3       304 PS       0.000400
   4851 CG         11.1860   26.1380   -6.2130 ca       304 PS       0.250900
   4852 CD1        10.4760   27.0780   -5.5130 ca       304 PS      -0.270200
   4853 CE1        10.3060   28.4180   -6.0330 ca       304 PS      -0.050500
   4854 CZ         10.8060   28.6780   -7.3030 ca       304 PS      -0.188800
   4855 CE2        11.4360   27.6680   -8.0530 ca       304 PS      -0.050500
   4856 CD2        11.6360   26.3480   -7.5430 ca       304 PS      -0.270200
   4857 H21        12.3560   23.6580   -3.9030 hc       304 PS      -0.016200
   4858 H22        11.5060   25.2180   -3.6230 hc       304 PS      -0.016200
   4859 H1         11.9660   24.2380   -6.4330 hc       304 PS      -0.005300
   4860 HD1        10.1160   26.9280   -4.5030 ha       304 PS       0.124600
   4861 HE1         9.8160   29.1780   -5.4330 ha       304 PS       0.105800
   4862 HZ         10.8060   29.6880   -7.7030 ha       304 PS       0.124800
   4863 HE2        11.8460   27.9680   -9.0230 ha       304 PS       0.105800
   4864 HD2        12.0460   25.5580   -8.1630 ha       304 PS       0.124600
   4865 C2         10.0560   23.8880   -5.4830 c3       305 PS       0.031000
   4866 C1         10.0260   22.5580   -6.2230 c3       305 PS       0.000400
   4867 CG         11.3260   21.6780   -6.0730 ca       305 PS       0.250900
   4868 CD1        12.0860   21.4580   -7.1330 ca       305 PS      -0.270200
   4869 CE1        13.1860   20.5780   -7.0830 ca       305 PS      -0.050500
   4870 CZ         13.4560   19.9680   -5.8530 ca       305 PS      -0.188800
   4871 CE2        12.6860   20.2680   -4.7530 ca       305 PS      -0.050500
   4872 CD2        11.6360   21.1680   -4.8430 ca       305 PS      -0.270200
   4873 H21         9.7160   23.8380   -4.4430 hc       305 PS      -0.016200
   4874 H22         9.2660   24.5280   -5.8930 hc       305 PS      -0.016200
   4875 H1          9.9260   22.7980   -7.2930 hc       305 PS      -0.005300
   4876 HD1        11.8460   22.0080   -8.0430 ha       305 PS       0.124600
   4877 HE1        13.8260   20.3280   -7.9230 ha       305 PS       0.105800
   4878 HZ         14.2660   19.2380   -5.8130 ha       305 PS       0.124800
   4879 HE2        12.8960   19.7780   -3.8130 ha       305 PS       0.105800
   4880 HD2        11.0160   21.3880   -3.9830 ha       305 PS       0.124600
   4881 C2          8.7460   21.7680   -5.9030 c3       306 PS       0.031000
   4882 C1          7.3660   22.5280   -5.8630 c3       306 PS       0.000400
   4883 CG          6.1560   21.8480   -6.6630 ca       306 PS       0.250900
   4884 CD1         5.5060   22.6380   -7.6630 ca       306 PS      -0.270200
   4885 CE1         4.3960   22.1080   -8.4030 ca       306 PS      -0.050500
   4886 CZ          4.0460   20.7680   -8.1330 ca       306 PS      -0.188800
   4887 CE2         4.7060   19.9880   -7.1630 ca       306 PS      -0.050500
   4888 CD2         5.7360   20.5780   -6.3530 ca       306 PS      -0.270200
   4889 H21         8.6560   20.9480   -6.6130 hc       306 PS      -0.016200
   4890 H22         8.9260   21.3380   -4.9030 hc       306 PS      -0.016200
   4891 H1          7.5360   23.3580   -6.5630 hc       306 PS      -0.005300
   4892 HD1         5.8960   23.6180   -7.9030 ha       306 PS       0.124600
   4893 HE1         3.9860   22.6680   -9.2430 ha       306 PS       0.105800
   4894 HZ          3.1460   20.4480   -8.6530 ha       306 PS       0.124800
   4895 HE2         4.3160   19.0280   -6.8430 ha       306 PS       0.105800
   4896 HD2         6.3360   20.0080   -5.6530 ha       306 PS       0.124600
   4897 C2          6.8860   23.0380   -4.4230 c3       307 PS       0.031000
   4898 C1          5.7260   24.0880   -4.5130 c3       307 PS       0.000400
   4899 CG          4.7560   23.9080   -3.3330 ca       307 PS       0.250900
   4900 CD1         3.6460   23.0680   -3.4030 ca       307 PS      -0.270200
   4901 CE1         2.6860   23.0980   -2.3030 ca       307 PS      -0.050500
   4902 CZ          2.8760   23.8380   -1.1530 ca       307 PS      -0.188800
   4903 CE2         4.1160   24.5180   -1.0230 ca       307 PS      -0.050500
   4904 CD2         5.0260   24.6180   -2.1330 ca       307 PS      -0.270200
   4905 H21         6.4260   22.2080   -3.8830 hc       307 PS      -0.016200
   4906 H22         7.7060   23.4380   -3.7930 hc       307 PS      -0.016200
   4907 H1          5.1660   23.7480   -5.3930 hc       307 PS      -0.005300
   4908 HD1         3.4660   22.5780   -4.3530 ha       307 PS       0.124600
   4909 HE1         1.7860   22.5180   -2.4430 ha       307 PS       0.105800
   4910 HZ          2.2660   23.7080   -0.2630 ha       307 PS       0.124800
   4911 HE2         4.3760   25.0980   -0.1430 ha       307 PS       0.105800
   4912 HD2         5.8660   25.2780   -1.9330 ha       307 PS       0.124600
   4913 C2          6.2060   25.5880   -4.7830 c3       308 PS       0.031000
   4914 C1          5.0460   26.4480   -5.5330 c3       308 PS       0.000400
   4915 CG          5.7060   27.6480   -6.1030 ca       308 PS       0.250900
   4916 CD1         5.9360   28.8180   -5.4130 ca       308 PS      -0.270200
   4917 CE1         6.9260   29.7080   -5.9330 ca       308 PS      -0.050500
   4918 CZ          7.4960   29.5280   -7.1530 ca       308 PS      -0.188800
   4919 CE2         7.1760   28.4780   -7.9130 ca       308 PS      -0.050500
   4920 CD2         6.3460   27.5180   -7.3930 ca       308 PS      -0.270200
   4921 H21         6.3360   26.0880   -3.8130 hc       308 PS      -0.016200
   4922 H22         7.1060   25.5780   -5.4030 hc       308 PS      -0.016200
   4923 H1          4.8160   25.8280   -6.4030 hc       308 PS      -0.005300
   4924 HD1         5.4060   28.9080   -4.4730 ha       308 PS       0.124600
   4925 HE1         7.1360   30.6380   -5.4230 ha       308 PS       0.105800
   4926 HZ          8.1860   30.2780   -7.5130 ha       308 PS       0.124800
   4927 HE2         7.6860   28.3380   -8.8630 ha       308 PS       0.105800
   4928 HD2         6.1760   26.5480   -7.8630 ha       308 PS       0.124600
   4929 C2          3.8060   26.7080   -4.6430 c3       309 PS       0.031000
   4930 C1          2.4760   26.9880   -5.4430 c3       309 PS       0.000400
   4931 CG          2.0260   25.7080   -6.0130 ca       309 PS       0.250900
   4932 CD1         2.1360   25.3180   -7.4030 ca       309 PS      -0.270200
   4933 CE1         1.6060   24.1380   -7.8830 ca       309 PS      -0.050500
   4934 CZ          0.9260   23.3080   -6.9630 ca       309 PS      -0.188800
   4935 CE2         0.8860   23.6080   -5.5630 ca       309 PS      -0.050500
   4936 CD2         1.4860   24.7480   -5.1530 ca       309 PS      -0.270200
   4937 H21         3.5160   25.8280   -4.0530 hc       309 PS      -0.016200
   4938 H22         4.0860   27.4680   -3.8930 hc       309 PS      -0.016200
   4939 H1          2.6860   27.6180   -6.3130 hc       309 PS      -0.005300
   4940 HD1         2.7160   25.8780   -8.1430 ha       309 PS       0.124600
   4941 HE1         1.6560   23.8480   -8.9330 ha       309 PS       0.105800
   4942 HZ          0.2860   22.5080   -7.3130 ha       309 PS       0.124800
   4943 HE2         0.3960   22.9680   -4.8430 ha       309 PS       0.105800
   4944 HD2         1.4260   24.9080   -4.0830 ha       309 PS       0.124600
   4945 C2          1.2660   27.6680   -4.6330 c3       310 PS       0.031000
   4946 C1          0.1360   28.3080   -5.5130 c3       310 PS       0.000400
   4947 CG         -0.8340   27.2680   -6.0230 ca       310 PS       0.250900
   4948 CD1        -1.6740   26.6880   -5.1430 ca       310 PS      -0.270200
   4949 CE1        -2.5640   25.6180   -5.5530 ca       310 PS      -0.050500
   4950 CZ         -2.4940   25.1280   -6.8430 ca       310 PS      -0.188800
   4951 CE2        -1.5740   25.7480   -7.8030 ca       310 PS      -0.050500
   4952 CD2        -0.7440   26.8180   -7.3730 ca       310 PS      -0.270200
   4953 H21         0.8360   27.0580   -3.8330 hc       310 PS      -0.016200
   4954 H22         1.7460   28.4680   -4.0630 hc       310 PS      -0.016200
   4955 H1          0.5860   28.7580   -6.4030 hc       310 PS      -0.005300
   4956 HD1        -1.7140   27.0480   -4.1130 ha       310 PS       0.124600
   4957 HE1        -3.2640   25.2280   -4.8230 ha       310 PS       0.105800
   4958 HZ         -3.1440   24.3080   -7.1130 ha       310 PS       0.124800
   4959 HE2        -1.4640   25.3880   -8.8230 ha       310 PS       0.105800
   4960 HD2        -0.0040   27.2280   -8.0530 ha       310 PS       0.124600
   4961 C2         -0.5640   29.4680   -4.7530 c3       311 PS       0.031000
   4962 C1         -0.4640   30.8080   -5.4830 c3       311 PS       0.000400
   4963 CG          1.0760   31.1680   -5.6630 ca       311 PS       0.250900
   4964 CD1         1.9260   31.2580   -4.5730 ca       311 PS      -0.270200
   4965 CE1         3.3160   31.4780   -4.8330 ca       311 PS      -0.050500
   4966 CZ          3.8160   31.4380   -6.1130 ca       311 PS      -0.188800
   4967 CE2         2.9660   31.3780   -7.2230 ca       311 PS      -0.050500
   4968 CD2         1.5960   31.2680   -6.9530 ca       311 PS      -0.270200
   4969 H21        -1.6440   29.2980   -4.7730 hc       311 PS      -0.016200
   4970 H22        -0.3240   29.5080   -3.6830 hc       311 PS      -0.016200
   4971 H1         -0.7640   30.6580   -6.5230 hc       311 PS      -0.005300
   4972 HD1         1.5960   31.3780   -3.5430 ha       311 PS       0.124600
   4973 HE1         3.9860   31.7080   -4.0030 ha       311 PS       0.105800
   4974 HZ          4.8760   31.5480   -6.2930 ha       311 PS       0.124800
   4975 HE2         3.3260   31.3380   -8.2530 ha       311 PS       0.105800
   4976 HD2         0.9060   31.2380   -7.7930 ha       311 PS       0.124600
   4977 C2         -1.3140   31.8780   -4.7830 c3       312 PS       0.031000
   4978 C1         -1.2040   33.3480   -5.4230 c3       312 PS       0.000400
   4979 CG          0.1860   33.9480   -5.1630 ca       312 PS       0.250900
   4980 CD1         0.5960   34.1780   -3.8430 ca       312 PS      -0.270200
   4981 CE1         1.8260   34.7580   -3.5930 ca       312 PS      -0.050500
   4982 CZ          2.5560   35.3480   -4.6330 ca       312 PS      -0.188800
   4983 CE2         2.1160   35.1680   -5.9530 ca       312 PS      -0.050500
   4984 CD2         0.9360   34.4880   -6.1930 ca       312 PS      -0.270200
   4985 H21        -2.3040   31.4080   -4.8030 hc       312 PS      -0.016200
   4986 H22        -1.0940   31.8880   -3.7130 hc       312 PS      -0.016200
   4987 H1         -1.3240   33.2880   -6.5130 hc       312 PS      -0.005300
   4988 HD1         0.0960   33.7280   -2.9930 ha       312 PS       0.124600
   4989 HE1         2.1460   34.9280   -2.5730 ha       312 PS       0.105800
   4990 HZ          3.4160   35.9980   -4.5130 ha       312 PS       0.124800
   4991 HE2         2.8660   35.4980   -6.6530 ha       312 PS       0.105800
   4992 HD2         0.4660   34.3980   -7.1630 ha       312 PS       0.124600
   4993 C2         -2.4240   34.1780   -4.8930 c3       313 PS       0.031000
   4994 C1         -2.4940   35.7280   -5.2730 c3       313 PS       0.000400
   4995 CG         -3.8640   36.1980   -5.6930 ca       313 PS       0.250900
   4996 CD1        -4.1140   36.2580   -7.0830 ca       313 PS      -0.270200
   4997 CE1        -5.3540   36.6580   -7.5430 ca       313 PS      -0.050500
   4998 CZ         -6.4040   36.8380   -6.6730 ca       313 PS      -0.188800
   4999 CE2        -6.1540   36.7880   -5.2630 ca       313 PS      -0.050500
   5000 CD2        -4.8540   36.5680   -4.7830 ca       313 PS      -0.270200
   5001 H21        -3.3740   33.6780   -5.1230 hc       313 PS      -0.016200
   5002 H22        -2.5940   34.0480   -3.8230 hc       313 PS      -0.016200
   5003 H1         -1.8840   35.7480   -6.1930 hc       313 PS      -0.005300
   5004 HD1        -3.2540   35.9780   -7.6830 ha       313 PS       0.124600
   5005 HE1        -5.4640   36.7180   -8.6230 ha       313 PS       0.105800
   5006 HZ         -7.4040   37.0480   -7.0430 ha       313 PS       0.124800
   5007 HE2        -6.9140   37.1080   -4.5630 ha       313 PS       0.105800
   5008 HD2        -4.7040   36.7380   -3.7130 ha       313 PS       0.124600
   5009 C2         -1.7940   36.6780   -4.1930 c3       314 PS       0.031000
   5010 C1         -1.7640   38.0880   -4.7830 c3       314 PS       0.000400
   5011 CG         -0.3940   38.4980   -5.1730 ca       314 PS       0.250900
   5012 CD1         0.6160   38.8780   -4.2830 ca       314 PS      -0.270200
   5013 CE1         1.9460   39.0180   -4.7230 ca       314 PS      -0.050500
   5014 CZ          2.3060   38.7280   -6.0330 ca       314 PS      -0.188800
   5015 CE2         1.3660   38.1480   -6.9230 ca       314 PS      -0.050500
   5016 CD2         0.0260   38.0580   -6.4630 ca       314 PS      -0.270200
   5017 H21        -2.3540   36.5780   -3.2530 hc       314 PS      -0.016200
   5018 H22        -0.7940   36.3180   -3.9630 hc       314 PS      -0.016200
   5019 H1         -2.3540   37.9980   -5.7030 hc       314 PS      -0.005300
   5020 HD1         0.3760   39.1180   -3.2430 ha       314 PS       0.124600
   5021 HE1         2.6960   39.4980   -4.1030 ha       314 PS       0.105800
   5022 HZ          3.3060   38.9680   -6.3530 ha       314 PS       0.124800
   5023 HE2         1.6260   37.9580   -7.9530 ha       314 PS       0.105800
   5024 HD2        -0.7640   37.6780   -7.1030 ha       314 PS       0.124600
   5025 C2         -2.4740  -40.7720   -3.8530 c3       315 PS       0.031000
   5026 C1         -3.6240  -40.0020   -4.6730 c3       315 PS       0.000400
   5027 CG         -2.9840  -39.0820   -5.7530 ca       315 PS       0.250900
   5028 CD1        -2.7440  -39.5920   -7.0130 ca       315 PS      -0.270200
   5029 CE1        -2.0740  -38.8620   -7.9830 ca       315 PS      -0.050500
   5030 CZ         -1.6340  -37.5920   -7.6830 ca       315 PS      -0.188800
   5031 CE2        -1.7440  -37.1120   -6.3630 ca       315 PS      -0.050500
   5032 CD2        -2.4040  -37.8620   -5.3630 ca       315 PS      -0.270200
   5033 H21        -2.9040  -41.3920   -3.0530 hc       315 PS      -0.016200
   5034 H22        -1.8240  -40.0720   -3.3230 hc       315 PS      -0.016200
   5035 H1         -4.3040  -40.7120   -5.1630 hc       315 PS      -0.005300
   5036 HD1        -3.1040  -40.5920   -7.2730 ha       315 PS       0.124600
   5037 HE1        -2.0140  -39.2620   -8.9930 ha       315 PS       0.105800
   5038 HZ         -1.1140  -36.9220   -8.3630 ha       315 PS       0.124800
   5039 HE2        -1.3740  -36.1520   -6.0430 ha       315 PS       0.105800
   5040 HD2        -2.4040  -37.4720   -4.3530 ha       315 PS       0.124600
   5041 C2         -4.5040  -39.2420   -3.6830 c3       316 PS       0.031000
   5042 C1         -5.6140  -38.3920   -4.3030 c3       316 PS       0.000400
   5043 CG         -6.0840  -37.3120   -3.3330 ca       316 PS       0.250900
   5044 CD1        -6.3540  -37.5920   -1.9730 ca       316 PS      -0.270200
   5045 CE1        -6.6440  -36.4720   -1.0730 ca       316 PS      -0.050500
   5046 CZ         -6.8640  -35.2420   -1.5830 ca       316 PS      -0.188800
   5047 CE2        -6.5540  -34.9320   -2.9230 ca       316 PS      -0.050500
   5048 CD2        -6.1640  -35.9920   -3.7830 ca       316 PS      -0.270200
   5049 H21        -4.8340  -39.9620   -2.9230 hc       316 PS      -0.016200
   5050 H22        -3.8640  -38.5920   -3.0630 hc       316 PS      -0.016200
   5051 H1         -5.2940  -37.8620   -5.2030 hc       316 PS      -0.005300
   5052 HD1        -6.0740  -38.5320   -1.5030 ha       316 PS       0.124600
   5053 HE1        -6.7040  -36.7420   -0.0230 ha       316 PS       0.105800
   5054 HZ         -7.1340  -34.3820   -0.9730 ha       316 PS       0.124800
   5055 HE2        -6.7840  -33.9420   -3.2930 ha       316 PS       0.105800
   5056 HD2        -5.9140  -35.7420   -4.8030 ha       316 PS       0.124600
   5057 C2         -6.7840  -39.3720   -4.7830 c3       317 PS       0.031000
   5058 C1         -7.7540  -38.5520   -5.7130 c3       317 PS       0.000400
   5059 CG         -7.0740  -37.6520   -6.7330 ca       317 PS       0.250900
   5060 CD1        -7.6440  -36.3520   -6.8130 ca       317 PS      -0.270200
   5061 CE1        -7.2240  -35.5520   -7.8430 ca       317 PS      -0.050500
   5062 CZ         -6.0640  -35.8720   -8.5930 ca       317 PS      -0.188800
   5063 CE2        -5.3340  -37.0920   -8.3930 ca       317 PS      -0.050500
   5064 CD2        -5.9240  -37.9920   -7.4930 ca       317 PS      -0.270200
   5065 H21        -6.3340  -40.2420   -5.2730 hc       317 PS      -0.016200
   5066 H22        -7.2540  -39.7220   -3.8530 hc       317 PS      -0.016200
   5067 H1         -8.3740  -37.9020   -5.0730 hc       317 PS      -0.005300
   5068 HD1        -8.5840  -36.0120   -6.3830 ha       317 PS       0.124600
   5069 HE1        -7.6840  -34.5920   -8.0230 ha       317 PS       0.105800
   5070 HZ         -5.6640  -35.2120   -9.3530 ha       317 PS       0.124800
   5071 HE2        -4.5640  -37.3920   -9.1030 ha       317 PS       0.105800
   5072 HD2        -5.5340  -38.9920   -7.3530 ha       317 PS       0.124600
   5073 C2         -8.7040  -39.6420   -6.3430 c3       318 PS       0.031000
   5074 C1         -9.8140  -39.0420   -7.2830 c3       318 PS       0.000400
   5075 CG        -10.6740  -37.9720   -6.6930 ca       318 PS       0.250900
   5076 CD1       -11.1240  -36.9220   -7.5330 ca       318 PS      -0.270200
   5077 CE1       -11.9040  -35.8720   -7.0530 ca       318 PS      -0.050500
   5078 CZ        -12.5240  -36.0320   -5.7730 ca       318 PS      -0.188800
   5079 CE2       -12.2140  -37.1420   -5.0630 ca       318 PS      -0.050500
   5080 CD2       -11.2040  -38.0620   -5.4330 ca       318 PS      -0.270200
   5081 H21        -8.1040  -40.3920   -6.8830 hc       318 PS      -0.016200
   5082 H22        -9.1440  -40.2720   -5.5630 hc       318 PS      -0.016200
   5083 H1         -9.2940  -38.6220   -8.1530 hc       318 PS      -0.005300
   5084 HD1       -11.0340  -37.0420   -8.6030 ha       318 PS       0.124600
   5085 HE1       -12.2140  -35.1620   -7.8130 ha       318 PS       0.105800
   5086 HZ        -13.3440  -35.4720   -5.3530 ha       318 PS       0.124800
   5087 HE2       -12.7340  -37.3220   -4.1230 ha       318 PS       0.105800
   5088 HD2       -11.0540  -38.9720   -4.8530 ha       318 PS       0.124600
   5089 C2        -10.6840   39.7980   -7.9430 c3       319 PS       0.031000
   5090 C1        -11.6640   38.9680   -7.0230 c3       319 PS       0.000400
   5091 CG        -10.9240   37.8380   -6.3130 ca       319 PS       0.250900
   5092 CD1       -10.9940   37.7480   -4.9030 ca       319 PS      -0.270200
   5093 CE1       -10.3440   36.7480   -4.2230 ca       319 PS      -0.050500
   5094 CZ         -9.6240   35.8180   -4.9630 ca       319 PS      -0.188800
   5095 CE2        -9.5840   35.8980   -6.3430 ca       319 PS      -0.050500
   5096 CD2       -10.2340   36.9280   -7.0730 ca       319 PS      -0.270200
   5097 H21       -11.3440   40.3580   -8.6230 hc       319 PS      -0.016200
   5098 H22        -9.9840   39.1980   -8.5330 hc       319 PS      -0.016200
   5099 H1        -12.2140   39.6280   -6.3430 hc       319 PS      -0.005300
   5100 HD1       -11.7140   38.4180   -4.4530 ha       319 PS       0.124600
   5101 HE1       -10.4540   36.5180   -3.1630 ha       319 PS       0.105800
   5102 HZ         -9.0640   35.1280   -4.3430 ha       319 PS       0.124800
   5103 HE2        -9.0140   35.1480   -6.9030 ha       319 PS       0.105800
   5104 HD2       -10.2340   36.9280   -8.1630 ha       319 PS       0.124600
   5105 C2        -12.8540   38.2580   -7.8530 c3       320 PS       0.031000
   5106 C1        -14.1040   37.7680   -7.0730 c3       320 PS       0.000400
   5107 CG        -14.6340   38.8880   -6.1830 ca       320 PS       0.250900
   5108 CD1       -14.4540   38.7580   -4.8530 ca       320 PS      -0.270200
   5109 CE1       -14.8640   39.8380   -4.0230 ca       320 PS      -0.050500
   5110 CZ        -15.4940   40.9380   -4.6030 ca       320 PS      -0.188800
   5111 CE2       -15.6440   41.0580   -6.0430 ca       320 PS      -0.050500
   5112 CD2       -15.1440   40.0580   -6.7730 ca       320 PS      -0.270200
   5113 H21       -13.1540   39.0080   -8.5930 hc       320 PS      -0.016200
   5114 H22       -12.4840   37.5080   -8.5530 hc       320 PS      -0.016200
   5115 H1        -13.7740   36.8980   -6.4830 hc       320 PS      -0.005300
   5116 HD1       -13.9940   37.8480   -4.4930 ha       320 PS       0.124600
   5117 HE1       -14.7540   39.7180   -2.9430 ha       320 PS       0.105800
   5118 HZ        -15.8940   41.7780   -4.0430 ha       320 PS       0.124800
   5119 HE2       -16.1340   41.8780   -6.5530 ha       320 PS       0.105800
   5120 HD2       -15.1440   40.1980   -7.8430 ha       320 PS       0.124600
   5121 C2        -15.2740   37.2480   -7.9730 c3       321 PS       0.031000
   5122 C1        -16.4440   36.7380   -7.1230 c3       321 PS       0.000400
   5123 CG        -15.9740   35.5680   -6.2230 ca       321 PS       0.250900
   5124 CD1       -15.4540   34.3880   -6.8330 ca       321 PS      -0.270200
   5125 CE1       -15.1040   33.3080   -6.0330 ca       321 PS      -0.050500
   5126 CZ        -15.0740   33.3980   -4.6030 ca       321 PS      -0.188800
   5127 CE2       -15.5440   34.5980   -4.0430 ca       321 PS      -0.050500
   5128 CD2       -16.0040   35.6580   -4.8830 ca       321 PS      -0.270200
   5129 H21       -15.6440   38.0080   -8.6730 hc       321 PS      -0.016200
   5130 H22       -14.8440   36.4880   -8.6330 hc       321 PS      -0.016200
   5131 H1        -16.7340   37.5580   -6.4530 hc       321 PS      -0.005300
   5132 HD1       -15.4240   34.2680   -7.9130 ha       321 PS       0.124600
   5133 HE1       -14.9140   32.3280   -6.4530 ha       321 PS       0.105800
   5134 HZ        -14.8340   32.5780   -3.9330 ha       321 PS       0.124800
   5135 HE2       -15.5240   34.7780   -2.9730 ha       321 PS       0.105800
   5136 HD2       -16.4040   36.5280   -4.3930 ha       321 PS       0.124600
   5137 C2        -17.7340   36.3680   -7.8730 c3       322 PS       0.031000
   5138 C1        -18.9040   35.8980   -6.9530 c3       322 PS       0.000400
   5139 CG        -19.1640   36.7180   -5.6230 ca       322 PS       0.250900
   5140 CD1       -19.2840   36.1380   -4.3330 ca       322 PS      -0.270200
   5141 CE1       -19.7540   36.8780   -3.3130 ca       322 PS      -0.050500
   5142 CZ        -20.0140   38.2480   -3.4830 ca       322 PS      -0.188800
   5143 CE2       -19.8040   38.8180   -4.6530 ca       322 PS      -0.050500
   5144 CD2       -19.4140   38.1080   -5.8030 ca       322 PS      -0.270200
   5145 H21       -17.9940   37.2980   -8.3930 hc       322 PS      -0.016200
   5146 H22       -17.5540   35.5480   -8.5830 hc       322 PS      -0.016200
   5147 H1        -18.4740   34.9280   -6.6630 hc       322 PS      -0.005300
   5148 HD1       -19.0140   35.0980   -4.1630 ha       322 PS       0.124600
   5149 HE1       -20.0340   36.3880   -2.3830 ha       322 PS       0.105800
   5150 HZ        -20.5440   38.7080   -2.6530 ha       322 PS       0.124800
   5151 HE2       -20.1140   39.8380   -4.8830 ha       322 PS       0.105800
   5152 HD2       -19.3440   38.5580   -6.7830 ha       322 PS       0.124600
   5153 C2        -20.2640   35.8180   -7.7630 c3       323 PS       0.031000
   5154 C1        -21.4640   35.1880   -7.0330 c3       323 PS       0.000400
   5155 CG        -21.2140   33.7580   -6.6630 ca       323 PS       0.250900
   5156 CD1       -21.0640   33.4080   -5.3530 ca       323 PS      -0.270200
   5157 CE1       -21.1140   32.0380   -4.9830 ca       323 PS      -0.050500
   5158 CZ        -21.3340   31.0380   -5.9530 ca       323 PS      -0.188800
   5159 CE2       -21.3540   31.4280   -7.3030 ca       323 PS      -0.050500
   5160 CD2       -21.2640   32.8080   -7.7030 ca       323 PS      -0.270200
   5161 H21       -20.5240   36.8280   -8.1030 hc       323 PS      -0.016200
   5162 H22       -20.0140   35.1380   -8.5930 hc       323 PS      -0.016200
   5163 H1        -21.6740   35.7480   -6.1030 hc       323 PS      -0.005300
   5164 HD1       -20.9740   34.1580   -4.5730 ha       323 PS       0.124600
   5165 HE1       -21.0940   31.7480   -3.9330 ha       323 PS       0.105800
   5166 HZ        -21.5040   30.0180   -5.6230 ha       323 PS       0.124800
   5167 HE2       -21.5040   30.6480   -8.0430 ha       323 PS       0.105800
   5168 HD2       -21.3840   33.1180   -8.7430 ha       323 PS       0.124600
   5169 C2        -22.7940   35.4780   -7.8630 c3       324 PS       0.031000
   5170 C1        -24.1040   35.2180   -7.1130 c3       324 PS       0.000400
   5171 CG        -24.3540   33.6580   -6.9330 ca       324 PS       0.250900
   5172 CD1       -24.3440   33.1580   -5.6430 ca       324 PS      -0.270200
   5173 CE1       -24.6040   31.7680   -5.4330 ca       324 PS      -0.050500
   5174 CZ        -24.7740   30.9580   -6.5330 ca       324 PS      -0.188800
   5175 CE2       -24.8240   31.4680   -7.8730 ca       324 PS      -0.050500
   5176 CD2       -24.5940   32.8480   -8.0430 ca       324 PS      -0.270200
   5177 H21       -22.7840   36.5280   -8.1930 hc       324 PS      -0.016200
   5178 H22       -22.7240   34.7480   -8.6730 hc       324 PS      -0.016200
   5179 H1        -24.1540   35.6080   -6.0930 hc       324 PS      -0.005300
   5180 HD1       -24.2040   33.7580   -4.7530 ha       324 PS       0.124600
   5181 HE1       -24.5040   31.3680   -4.4330 ha       324 PS       0.105800
   5182 HZ        -24.9640   29.8980   -6.4130 ha       324 PS       0.124800
   5183 HE2       -24.8840   30.8280   -8.7430 ha       324 PS       0.105800
   5184 HD2       -24.4840   33.2680   -9.0330 ha       324 PS       0.124600
   5185 C2        -25.4340   35.8080   -7.7130 c3       325 PS       0.031000
   5186 C1        -26.6840   35.5780   -6.7930 c3       325 PS       0.000400
   5187 CG        -27.3540   34.1980   -6.8230 ca       325 PS       0.250900
   5188 CD1       -27.4140   33.4180   -5.6530 ca       325 PS      -0.270200
   5189 CE1       -28.0240   32.1380   -5.6330 ca       325 PS      -0.050500
   5190 CZ        -28.4940   31.5980   -6.8730 ca       325 PS      -0.188800
   5191 CE2       -28.3240   32.3780   -8.0630 ca       325 PS      -0.050500
   5192 CD2       -27.7940   33.6880   -8.0530 ca       325 PS      -0.270200
   5193 H21       -25.2440   36.8780   -7.9030 hc       325 PS      -0.016200
   5194 H22       -25.6240   35.4080   -8.7130 hc       325 PS      -0.016200
   5195 H1        -26.2240   35.7480   -5.8130 hc       325 PS      -0.005300
   5196 HD1       -26.9440   33.7980   -4.7530 ha       325 PS       0.124600
   5197 HE1       -28.1140   31.5780   -4.7130 ha       325 PS       0.105800
   5198 HZ        -28.9040   30.5980   -6.9230 ha       325 PS       0.124800
   5199 HE2       -28.6640   31.9280   -8.9930 ha       325 PS       0.105800
   5200 HD2       -27.8140   34.2380   -8.9830 ha       325 PS       0.124600
   5201 C2        -27.7540   36.6980   -6.9630 c3       326 PS       0.031000
   5202 C1        -28.9140   36.6680   -5.9730 c3       326 PS       0.000400
   5203 CG        -30.1340   35.8180   -6.3430 ca       326 PS       0.250900
   5204 CD1       -31.1440   35.6180   -5.3830 ca       326 PS      -0.270200
   5205 CE1       -32.3040   34.8080   -5.6030 ca       326 PS      -0.050500
   5206 CZ        -32.4540   34.2280   -6.8630 ca       326 PS      -0.188800
   5207 CE2       -31.4640   34.4080   -7.7830 ca       326 PS      -0.050500
   5208 CD2       -30.3040   35.1480   -7.5930 ca       326 PS      -0.270200
   5209 H21       -27.2540   37.6680   -6.8130 hc       326 PS      -0.016200
   5210 H22       -28.1740   36.6880   -7.9730 hc       326 PS      -0.016200
   5211 H1        -28.5440   36.0880   -5.1130 hc       326 PS      -0.005300
   5212 HD1       -31.0640   36.0380   -4.3830 ha       326 PS       0.124600
   5213 HE1       -33.0440   34.6180   -4.8330 ha       326 PS       0.105800
   5214 HZ        -33.3840   33.7280   -7.1130 ha       326 PS       0.124800
   5215 HE2       -31.6040   33.9780   -8.7730 ha       326 PS       0.105800
   5216 HD2       -29.6840   35.3480   -8.4530 ha       326 PS       0.124600
   5217 C2        -29.2840   38.1680   -5.3530 c3       327 PS       0.031000
   5218 C1        -29.9240   39.1580   -6.3230 c3       327 PS       0.000400
   5219 CG        -31.4540   38.7980   -6.4230 ca       327 PS       0.250900
   5220 CD1       -32.2540   38.9880   -5.3030 ca       327 PS      -0.270200
   5221 CE1       -33.5340   38.4680   -5.2730 ca       327 PS      -0.050500
   5222 CZ        -34.0240   37.6780   -6.3130 ca       327 PS      -0.188800
   5223 CE2       -33.2640   37.5680   -7.4530 ca       327 PS      -0.050500
   5224 CD2       -31.9940   38.1080   -7.5130 ca       327 PS      -0.270200
   5225 H21       -29.9640   37.9280   -4.5230 hc       327 PS      -0.016200
   5226 H22       -28.3340   38.5380   -4.9430 hc       327 PS      -0.016200
   5227 H1        -29.4140   39.0280   -7.2930 hc       327 PS      -0.005300
   5228 HD1       -31.8740   39.4380   -4.3930 ha       327 PS       0.124600
   5229 HE1       -34.1640   38.5280   -4.3830 ha       327 PS       0.105800
   5230 HZ        -35.0040   37.2180   -6.1930 ha       327 PS       0.124800
   5231 HE2       -33.4840   36.9280   -8.3030 ha       327 PS       0.105800
   5232 HD2       -31.4240   37.7480   -8.3530 ha       327 PS       0.124600
   5233 C2        -29.6940  -39.4020   -5.8330 c3       328 PS       0.031000
   5234 C1        -29.1740  -38.3820   -6.8930 c3       328 PS       0.000400
   5235 CG        -29.3540  -36.8820   -6.5830 ca       328 PS       0.250900
   5236 CD1       -29.7240  -36.4720   -5.3130 ca       328 PS      -0.270200
   5237 CE1       -30.0840  -35.1020   -4.9330 ca       328 PS      -0.050500
   5238 CZ        -30.1140  -34.1820   -5.9830 ca       328 PS      -0.188800
   5239 CE2       -29.8540  -34.6020   -7.3130 ca       328 PS      -0.050500
   5240 CD2       -29.4640  -35.9420   -7.5830 ca       328 PS      -0.270200
   5241 H21       -30.6640  -38.9220   -5.6530 hc       328 PS      -0.016200
   5242 H22       -29.1240  -39.2820   -4.9030 hc       328 PS      -0.016200
   5243 H1        -29.7640  -38.7420   -7.7430 hc       328 PS      -0.005300
   5244 HD1       -29.9540  -37.1820   -4.5230 ha       328 PS       0.124600
   5245 HE1       -30.3640  -34.7920   -3.9230 ha       328 PS       0.105800
   5246 HZ        -30.3140  -33.1420   -5.7430 ha       328 PS       0.124800
   5247 HE2       -29.9040  -33.8820   -8.1330 ha       328 PS       0.105800
   5248 HD2       -29.1540  -36.1420   -8.6030 ha       328 PS       0.124600
   5249 C2        -27.7540   41.4180   -7.3430 c3       329 PS       0.031000
   5250 C1        -26.6840   41.5380   -6.1630 c3       329 PS       0.000400
   5251 CG        -25.6540   40.4780   -6.3130 ca       329 PS       0.250900
   5252 CD1       -25.4640   39.4580   -5.3530 ca       329 PS      -0.270200
   5253 CE1       -24.3240   38.6380   -5.4330 ca       329 PS      -0.050500
   5254 CZ        -23.4740   38.7480   -6.5430 ca       329 PS      -0.188800
   5255 CE2       -23.6940   39.6580   -7.6130 ca       329 PS      -0.050500
   5256 CD2       -24.7640   40.5480   -7.4530 ca       329 PS      -0.270200
   5257 H21       -27.6040   40.4280   -7.7930 hc       329 PS      -0.016200
   5258 H22       -27.4740   42.0980   -8.1530 hc       329 PS      -0.016200
   5259 H1        -27.2540   41.3180   -5.2530 hc       329 PS      -0.005300
   5260 HD1       -26.0040   39.3980   -4.4230 ha       329 PS       0.124600
   5261 HE1       -24.0640   37.9280   -4.6530 ha       329 PS       0.105800
   5262 HZ        -22.6340   38.0580   -6.4530 ha       329 PS       0.124800
   5263 HE2       -23.0240   39.6680   -8.4730 ha       329 PS       0.105800
   5264 HD2       -24.9640   41.2380   -8.2630 ha       329 PS       0.124600
   5265 C2        -26.1040  -37.0520   -6.0030 c3       330 PS       0.031000
   5266 C1        -25.3840  -36.9320   -4.6230 c3       330 PS       0.000400
   5267 CG        -26.4040  -36.9620   -3.4130 ca       330 PS       0.250900
   5268 CD1       -26.4940  -38.0020   -2.5230 ca       330 PS      -0.270200
   5269 CE1       -27.4140  -37.9720   -1.4630 ca       330 PS      -0.050500
   5270 CZ        -28.2940  -36.9620   -1.3830 ca       330 PS      -0.188800
   5271 CE2       -28.1940  -35.9020   -2.2230 ca       330 PS      -0.050500
   5272 CD2       -27.1940  -35.8420   -3.1630 ca       330 PS      -0.270200
   5273 H21       -25.4340  -36.8320   -6.8530 hc       330 PS      -0.016200
   5274 H22       -26.8540  -36.2520   -6.0730 hc       330 PS      -0.016200
   5275 H1        -24.5740  -36.1920   -4.6030 hc       330 PS      -0.005300
   5276 HD1       -26.0640  -38.9520   -2.8130 ha       330 PS       0.124600
   5277 HE1       -27.5440  -38.8620   -0.8530 ha       330 PS       0.105800
   5278 HZ        -28.9740  -36.8520   -0.5430 ha       330 PS       0.124800
   5279 HE2       -28.7340  -34.9820   -2.0430 ha       330 PS       0.105800
   5280 HD2       -27.0740  -34.9520   -3.7730 ha       330 PS       0.124600
   5281 C2          3.9160    8.5180    8.4270 c3       331 PS       0.031000
   5282 C1          4.4060    9.5180    7.2970 c3       331 PS       0.000400
   5283 CG          3.4760    9.3680    6.0670 ca       331 PS       0.250900
   5284 CD1         2.1060    9.6880    6.1370 ca       331 PS      -0.270200
   5285 CE1         1.3560    9.7580    4.9270 ca       331 PS      -0.050500
   5286 CZ          1.9660    9.5280    3.7070 ca       331 PS      -0.188800
   5287 CE2         3.2460    8.9980    3.6470 ca       331 PS      -0.050500
   5288 CD2         3.9860    8.8380    4.8470 ca       331 PS      -0.270200
   5289 H21         4.4060    7.5480    8.3770 hc       331 PS      -0.016200
   5290 H22         2.8660    8.2080    8.4270 hc       331 PS      -0.016200
   5291 H1          5.4260    9.2280    7.0270 hc       331 PS      -0.005300
   5292 HD1         1.5560    9.9280    7.0470 ha       331 PS       0.124600
   5293 HE1         0.3460   10.1580    4.9470 ha       331 PS       0.105800
   5294 HZ          1.3760    9.6280    2.8070 ha       331 PS       0.124800
   5295 HE2         3.6760    8.8280    2.6670 ha       331 PS       0.105800
   5296 HD2         5.0360    8.5380    4.7870 ha       331 PS       0.124600
   5297 C2          4.4160   11.0480    7.8470 c3       332 PS       0.031000
   5298 C1          5.2160   12.1180    6.9270 c3       332 PS       0.000400
   5299 CG          4.8560   12.1280    5.3770 ca       332 PS       0.250900
   5300 CD1         5.7960   11.7980    4.4670 ca       332 PS      -0.270200
   5301 CE1         5.5760   11.8980    3.0670 ca       332 PS      -0.050500
   5302 CZ          4.2860   12.2880    2.6470 ca       332 PS      -0.188800
   5303 CE2         3.2260   12.5080    3.5970 ca       332 PS      -0.050500
   5304 CD2         3.4860   12.4580    4.9870 ca       332 PS      -0.270200
   5305 H21         3.4060   11.4480    7.9970 hc       332 PS      -0.016200
   5306 H22         4.8760   11.1680    8.8370 hc       332 PS      -0.016200
   5307 H1          6.2560   11.7780    7.0570 hc       332 PS      -0.005300
   5308 HD1         6.8060   11.5180    4.7470 ha       332 PS       0.124600
   5309 HE1         6.2960   11.6580    2.2970 ha       332 PS       0.105800
   5310 HZ          4.1760   12.4580    1.5770 ha       332 PS       0.124800
   5311 HE2         2.2460   12.7880    3.2170 ha       332 PS       0.105800
   5312 HD2         2.7560   12.7280    5.7470 ha       332 PS       0.124600
   5313 C2          4.9460   13.5780    7.4770 c3       333 PS       0.031000
   5314 C1          5.4260   14.7280    6.7370 c3       333 PS       0.000400
   5315 CG          4.6760   16.0080    7.2270 ca       333 PS       0.250900
   5316 CD1         3.2860   16.2080    6.8970 ca       333 PS      -0.270200
   5317 CE1         2.6460   17.3880    7.1770 ca       333 PS      -0.050500
   5318 CZ          3.3760   18.3380    7.8470 ca       333 PS      -0.188800
   5319 CE2         4.6860   18.1980    8.1670 ca       333 PS      -0.050500
   5320 CD2         5.3660   17.0380    7.8870 ca       333 PS      -0.270200
   5321 H21         3.8660   13.5780    7.6670 hc       333 PS      -0.016200
   5322 H22         5.3860   13.6280    8.4870 hc       333 PS      -0.016200
   5323 H1          5.0560   14.5080    5.7270 hc       333 PS      -0.005300
   5324 HD1         2.7660   15.4380    6.3470 ha       333 PS       0.124600
   5325 HE1         1.6660   17.6380    6.7670 ha       333 PS       0.105800
   5326 HZ          2.8760   19.2880    8.0170 ha       333 PS       0.124800
   5327 HE2         5.1460   19.0380    8.6870 ha       333 PS       0.105800
   5328 HD2         6.4060   16.9180    8.1670 ha       333 PS       0.124600
   5329 C2          7.0560   14.8380    6.8170 c3       334 PS       0.031000
   5330 C1          7.8160   15.9180    5.8070 c3       334 PS       0.000400
   5331 CG          7.2060   15.8380    4.3670 ca       334 PS       0.250900
   5332 CD1         6.0660   16.5280    3.9570 ca       334 PS      -0.270200
   5333 CE1         5.4160   16.3080    2.7270 ca       334 PS      -0.050500
   5334 CZ          6.0060   15.3880    1.8070 ca       334 PS      -0.188800
   5335 CE2         7.1860   14.7080    2.2170 ca       334 PS      -0.050500
   5336 CD2         7.8160   14.9480    3.3570 ca       334 PS      -0.270200
   5337 H21         7.4160   15.0180    7.8370 hc       334 PS      -0.016200
   5338 H22         7.4760   13.8780    6.5070 hc       334 PS      -0.016200
   5339 H1          7.6360   16.9780    6.0370 hc       334 PS      -0.005300
   5340 HD1         5.5360   17.1580    4.6670 ha       334 PS       0.124600
   5341 HE1         4.5160   16.8880    2.5070 ha       334 PS       0.105800
   5342 HZ          5.4460   15.2680    0.8870 ha       334 PS       0.124800
   5343 HE2         7.5760   13.9780    1.5170 ha       334 PS       0.105800
   5344 HD2         8.7260   14.4080    3.6070 ha       334 PS       0.124600
   5345 C2          9.3360   15.6980    5.8170 c3       335 PS       0.031000
   5346 C1         10.2460   16.9880    5.7170 c3       335 PS       0.000400
   5347 CG         11.6460   16.4080    6.0470 ca       335 PS       0.250900
   5348 CD1        12.2860   16.6780    7.2070 ca       335 PS      -0.270200
   5349 CE1        13.5160   16.0580    7.5770 ca       335 PS      -0.050500
   5350 CZ         14.1460   15.1680    6.7170 ca       335 PS      -0.188800
   5351 CE2        13.5260   14.8780    5.4770 ca       335 PS      -0.050500
   5352 CD2        12.2160   15.4180    5.1970 ca       335 PS      -0.270200
   5353 H21         9.3760   15.3280    6.8470 hc       335 PS      -0.016200
   5354 H22         9.7460   14.9080    5.1670 hc       335 PS      -0.016200
   5355 H1         10.0360   17.7380    6.4970 hc       335 PS      -0.005300
   5356 HD1        11.9460   17.4180    7.9370 ha       335 PS       0.124600
   5357 HE1        14.1060   16.5080    8.3770 ha       335 PS       0.105800
   5358 HZ         15.1360   14.7880    6.9370 ha       335 PS       0.124800
   5359 HE2        14.0960   14.2580    4.7870 ha       335 PS       0.105800
   5360 HD2        11.6960   15.1880    4.2670 ha       335 PS       0.124600
   5361 C2         10.2660   17.5980    4.3070 c3       336 PS       0.031000
   5362 C1          9.2760   18.7580    4.0670 c3       336 PS       0.000400
   5363 CG          9.4560   19.9180    5.0870 ca       336 PS       0.250900
   5364 CD1         8.3860   20.3280    5.8770 ca       336 PS      -0.270200
   5365 CE1         8.4460   21.2080    6.9170 ca       336 PS      -0.050500
   5366 CZ          9.6860   21.7780    7.1570 ca       336 PS      -0.188800
   5367 CE2        10.7960   21.4680    6.3470 ca       336 PS      -0.050500
   5368 CD2        10.6460   20.5380    5.3070 ca       336 PS      -0.270200
   5369 H21        11.2960   17.9380    4.1970 hc       336 PS      -0.016200
   5370 H22        10.1260   16.7880    3.5770 hc       336 PS      -0.016200
   5371 H1          8.2460   18.4280    4.2170 hc       336 PS      -0.005300
   5372 HD1         7.4460   19.8180    5.6970 ha       336 PS       0.124600
   5373 HE1         7.5260   21.4580    7.4370 ha       336 PS       0.105800
   5374 HZ          9.7660   22.4880    7.9770 ha       336 PS       0.124800
   5375 HE2        11.7560   21.9480    6.4970 ha       336 PS       0.105800
   5376 HD2        11.5360   20.2380    4.7570 ha       336 PS       0.124600
   5377 C2          9.3960   19.3880    2.6770 c3       337 PS       0.031000
   5378 C1          8.3060   20.4680    2.3170 c3       337 PS       0.000400
   5379 CG          8.8460   21.2780    1.1070 ca       337 PS       0.250900
   5380 CD1         8.7460   22.6680    1.1470 ca       337 PS      -0.270200
   5381 CE1         9.1760   23.3680   -0.0430 ca       337 PS      -0.050500
   5382 CZ          9.4760   22.7280   -1.2630 ca       337 PS      -0.188800
   5383 CE2         9.5860   21.3180   -1.2330 ca       337 PS      -0.050500
   5384 CD2         9.2260   20.6180   -0.0530 ca       337 PS      -0.270200
   5385 H21        10.3560   19.8980    2.5170 hc       337 PS      -0.016200
   5386 H22         9.3660   18.5980    1.9070 hc       337 PS      -0.016200
   5387 H1          8.0560   21.0980    3.1770 hc       337 PS      -0.005300
   5388 HD1         8.4460   23.1980    2.0470 ha       337 PS       0.124600
   5389 HE1         9.1260   24.4480    0.0270 ha       337 PS       0.105800
   5390 HZ          9.5760   23.1580   -2.2530 ha       337 PS       0.124800
   5391 HE2         9.9360   20.8380   -2.1430 ha       337 PS       0.105800
   5392 HD2         9.3060   19.5380   -0.0630 ha       337 PS       0.124600
   5393 C2          6.8660   19.9780    1.9570 c3       338 PS       0.031000
   5394 C1          5.7160   20.9980    1.8570 c3       338 PS       0.000400
   5395 CG          5.5960   21.8780    3.1370 ca       338 PS       0.250900
   5396 CD1         5.3060   21.2980    4.4370 ca       338 PS      -0.270200
   5397 CE1         5.2660   22.1380    5.5470 ca       338 PS      -0.050500
   5398 CZ          5.4660   23.5280    5.4170 ca       338 PS      -0.188800
   5399 CE2         5.8660   24.0580    4.2370 ca       338 PS      -0.050500
   5400 CD2         5.8360   23.2780    3.0670 ca       338 PS      -0.270200
   5401 H21         6.9560   19.2980    1.1070 hc       338 PS      -0.016200
   5402 H22         6.5660   19.3080    2.7770 hc       338 PS      -0.016200
   5403 H1          5.9860   21.6380    1.0070 hc       338 PS      -0.005300
   5404 HD1         4.8860   20.2980    4.4370 ha       338 PS       0.124600
   5405 HE1         4.8060   21.8080    6.4670 ha       338 PS       0.105800
   5406 HZ          5.3960   24.1680    6.2970 ha       338 PS       0.124800
   5407 HE2         5.9760   25.1380    4.3570 ha       338 PS       0.105800
   5408 HD2         5.9960   23.6980    2.0770 ha       338 PS       0.124600
   5409 C2          4.3760   20.3080    1.5170 c3       339 PS       0.031000
   5410 C1          4.0060   20.2480   -0.0130 c3       339 PS       0.000400
   5411 CG          5.1360   19.5280   -0.6930 ca       339 PS       0.250900
   5412 CD1         5.8660   20.2080   -1.6930 ca       339 PS      -0.270200
   5413 CE1         6.8660   19.6980   -2.5130 ca       339 PS      -0.050500
   5414 CZ          7.2160   18.3680   -2.2130 ca       339 PS      -0.188800
   5415 CE2         6.3860   17.5880   -1.3330 ca       339 PS      -0.050500
   5416 CD2         5.3660   18.1780   -0.5630 ca       339 PS      -0.270200
   5417 H21         4.2560   19.3180    1.9570 hc       339 PS      -0.016200
   5418 H22         3.6660   20.9180    2.0870 hc       339 PS      -0.016200
   5419 H1          3.8960   21.2080   -0.5230 hc       339 PS      -0.005300
   5420 HD1         5.4860   21.2180   -1.8230 ha       339 PS       0.124600
   5421 HE1         7.4760   20.1880   -3.2630 ha       339 PS       0.105800
   5422 HZ          8.0660   17.8780   -2.6930 ha       339 PS       0.124800
   5423 HE2         6.6360   16.5480   -1.1730 ha       339 PS       0.105800
   5424 HD2         4.8260   17.5580    0.1470 ha       339 PS       0.124600
   5425 C2          2.5960   19.4580   -0.1730 c3       340 PS       0.031000
   5426 C1          2.1160   19.0580   -1.5730 c3       340 PS       0.000400
   5427 CG          2.9960   18.0880   -2.2630 ca       340 PS       0.250900
   5428 CD1         3.7460   18.4480   -3.4530 ca       340 PS      -0.270200
   5429 CE1         4.5560   17.5280   -4.1230 ca       340 PS      -0.050500
   5430 CZ          4.6760   16.2380   -3.6230 ca       340 PS      -0.188800
   5431 CE2         3.9660   15.8280   -2.4730 ca       340 PS      -0.050500
   5432 CD2         3.1560   16.7780   -1.7930 ca       340 PS      -0.270200
   5433 H21         2.6560   18.5780    0.4670 hc       340 PS      -0.016200
   5434 H22         1.8160   20.1580    0.1570 hc       340 PS      -0.016200
   5435 H1          1.9960   19.9380   -2.2330 hc       340 PS      -0.005300
   5436 HD1         3.5960   19.4580   -3.8130 ha       340 PS       0.124600
   5437 HE1         5.1360   17.8780   -4.9730 ha       340 PS       0.105800
   5438 HZ          5.3660   15.5280   -4.0730 ha       340 PS       0.124800
   5439 HE2         4.2260   14.8880   -2.0030 ha       340 PS       0.105800
   5440 HD2         2.6760   16.4080   -0.8830 ha       340 PS       0.124600
   5441 C2          0.6360   18.5480   -1.3730 c3       341 PS       0.031000
   5442 C1          0.1460   17.6580   -2.5430 c3       341 PS       0.000400
   5443 CG          0.5260   18.0080   -4.0130 ca       341 PS       0.250900
   5444 CD1         0.9960   17.0680   -4.9330 ca       341 PS      -0.270200
   5445 CE1         1.3460   17.3980   -6.2530 ca       341 PS      -0.050500
   5446 CZ          1.1560   18.7580   -6.6230 ca       341 PS      -0.188800
   5447 CE2         0.7260   19.6880   -5.6930 ca       341 PS      -0.050500
   5448 CD2         0.4560   19.3380   -4.3830 ca       341 PS      -0.270200
   5449 H21         0.6060   17.9780   -0.4330 hc       341 PS      -0.016200
   5450 H22        -0.1040   19.3180   -1.1030 hc       341 PS      -0.016200
   5451 H1          0.5560   16.6680   -2.2930 hc       341 PS      -0.005300
   5452 HD1         1.3060   16.0580   -4.6930 ha       341 PS       0.124600
   5453 HE1         1.6160   16.7380   -7.0630 ha       341 PS       0.105800
   5454 HZ          1.3860   19.0580   -7.6430 ha       341 PS       0.124800
   5455 HE2         0.6560   20.7280   -5.9930 ha       341 PS       0.105800
   5456 HD2         0.1160   20.0680   -3.6530 ha       341 PS       0.124600
   5457 C2         -1.3540   17.3380   -2.3330 c3       342 PS       0.031000
   5458 C1         -2.4140   18.4180   -2.3130 c3       342 PS       0.000400
   5459 CG         -3.1540   18.3880   -1.0230 ca       342 PS       0.250900
   5460 CD1        -3.7340   17.2480   -0.5030 ca       342 PS      -0.270200
   5461 CE1        -4.4540   17.3080    0.7270 ca       342 PS      -0.050500
   5462 CZ         -4.6540   18.6180    1.3070 ca       342 PS      -0.188800
   5463 CE2        -4.0140   19.7080    0.7370 ca       342 PS      -0.050500
   5464 CD2        -3.2740   19.6480   -0.4630 ca       342 PS      -0.270200
   5465 H21        -1.6040   16.5080   -3.0030 hc       342 PS      -0.016200
   5466 H22        -1.3140   16.9780   -1.2930 hc       342 PS      -0.016200
   5467 H1         -2.0040   19.4280   -2.4030 hc       342 PS      -0.005300
   5468 HD1        -3.5740   16.3680   -1.1230 ha       342 PS       0.124600
   5469 HE1        -4.9440   16.4780    1.2270 ha       342 PS       0.105800
   5470 HZ         -5.1940   18.7380    2.2470 ha       342 PS       0.124800
   5471 HE2        -4.1140   20.7080    1.1570 ha       342 PS       0.105800
   5472 HD2        -2.8440   20.5980   -0.7830 ha       342 PS       0.124600
   5473 C2         -3.3740   18.2280   -3.5330 c3       343 PS       0.031000
   5474 C1         -4.5740   19.1380   -3.6230 c3       343 PS       0.000400
   5475 CG         -4.2940   20.6080   -3.3630 ca       343 PS       0.250900
   5476 CD1        -3.4140   21.2780   -4.2630 ca       343 PS      -0.270200
   5477 CE1        -3.0940   22.6280   -3.9930 ca       343 PS      -0.050500
   5478 CZ         -3.7040   23.3280   -2.9230 ca       343 PS      -0.188800
   5479 CE2        -4.7340   22.7080   -2.2230 ca       343 PS      -0.050500
   5480 CD2        -4.9040   21.3380   -2.3330 ca       343 PS      -0.270200
   5481 H21        -2.7640   18.4780   -4.4130 hc       343 PS      -0.016200
   5482 H22        -3.7540   17.1980   -3.5830 hc       343 PS      -0.016200
   5483 H1         -5.3340   18.7880   -2.9030 hc       343 PS      -0.005300
   5484 HD1        -2.9440   20.6880   -5.0530 ha       343 PS       0.124600
   5485 HE1        -2.3940   23.0980   -4.6730 ha       343 PS       0.105800
   5486 HZ         -3.3640   24.3480   -2.7430 ha       343 PS       0.124800
   5487 HE2        -5.2540   23.2780   -1.4630 ha       343 PS       0.105800
   5488 HD2        -5.6440   20.7980   -1.7430 ha       343 PS       0.124600
   5489 C2         -5.2940   18.9180   -5.0330 c3       344 PS       0.031000
   5490 C1         -6.6640   19.7280   -5.1130 c3       344 PS       0.000400
   5491 CG         -7.7740   18.7880   -5.7930 ca       344 PS       0.250900
   5492 CD1        -7.6440   18.4080   -7.1030 ca       344 PS      -0.270200
   5493 CE1        -8.6040   17.5680   -7.7430 ca       344 PS      -0.050500
   5494 CZ         -9.7040   17.1180   -7.1030 ca       344 PS      -0.188800
   5495 CE2        -9.8940   17.5080   -5.7530 ca       344 PS      -0.050500
   5496 CD2        -8.9140   18.3380   -5.1330 ca       344 PS      -0.270200
   5497 H21        -4.5540   19.2280   -5.7830 hc       344 PS      -0.016200
   5498 H22        -5.5040   17.8480   -5.0430 hc       344 PS      -0.016200
   5499 H1         -7.0340   19.8780   -4.0930 hc       344 PS      -0.005300
   5500 HD1        -6.8840   18.9380   -7.6530 ha       344 PS       0.124600
   5501 HE1        -8.3540   17.3080   -8.7630 ha       344 PS       0.105800
   5502 HZ        -10.4940   16.5980   -7.6330 ha       344 PS       0.124800
   5503 HE2       -10.8440   17.2980   -5.2630 ha       344 PS       0.105800
   5504 HD2        -9.0540   18.7580   -4.1430 ha       344 PS       0.124600
   5505 C2         -6.5040   21.1180   -5.7530 c3       345 PS       0.031000
   5506 C1         -7.8140   21.9480   -5.9430 c3       345 PS       0.000400
   5507 CG         -7.4840   23.3680   -6.4630 ca       345 PS       0.250900
   5508 CD1        -6.4740   24.1880   -5.8530 ca       345 PS      -0.270200
   5509 CE1        -6.1940   25.4580   -6.4230 ca       345 PS      -0.050500
   5510 CZ         -6.8440   25.8880   -7.5730 ca       345 PS      -0.188800
   5511 CE2        -7.8440   25.0780   -8.1830 ca       345 PS      -0.050500
   5512 CD2        -8.1440   23.8580   -7.6030 ca       345 PS      -0.270200
   5513 H21        -5.9240   21.7480   -5.0730 hc       345 PS      -0.016200
   5514 H22        -6.0040   21.0180   -6.7230 hc       345 PS      -0.016200
   5515 H1         -8.5040   21.3980   -6.6030 hc       345 PS      -0.005300
   5516 HD1        -5.7840   23.8880   -5.0630 ha       345 PS       0.124600
   5517 HE1        -5.5740   26.1280   -5.8430 ha       345 PS       0.105800
   5518 HZ         -6.6240   26.8880   -7.9130 ha       345 PS       0.124800
   5519 HE2        -8.4140   25.4980   -9.0130 ha       345 PS       0.105800
   5520 HD2        -8.8840   23.2080   -8.0730 ha       345 PS       0.124600
   5521 C2         -8.5940   21.9880   -4.6030 c3       346 PS       0.031000
   5522 C1         -9.6540   23.0880   -4.5430 c3       346 PS       0.000400
   5523 CG         -9.0740   24.4080   -4.1030 ca       346 PS       0.250900
   5524 CD1        -8.3340   24.5180   -2.9630 ca       346 PS      -0.270200
   5525 CE1        -7.9640   25.8580   -2.5830 ca       346 PS      -0.050500
   5526 CZ         -8.3240   27.0180   -3.3330 ca       346 PS      -0.188800
   5527 CE2        -9.0740   26.8480   -4.4730 ca       346 PS      -0.050500
   5528 CD2        -9.4740   25.5280   -4.8630 ca       346 PS      -0.270200
   5529 H21        -9.0840   21.0180   -4.4230 hc       346 PS      -0.016200
   5530 H22        -7.9540   22.1580   -3.7330 hc       346 PS      -0.016200
   5531 H1        -10.1340   23.1380   -5.5330 hc       346 PS      -0.005300
   5532 HD1        -8.1840   23.6480   -2.3430 ha       346 PS       0.124600
   5533 HE1        -7.3640   26.0380   -1.7030 ha       346 PS       0.105800
   5534 HZ         -8.0140   28.0180   -3.0430 ha       346 PS       0.124800
   5535 HE2        -9.2340   27.7480   -5.0630 ha       346 PS       0.105800
   5536 HD2       -10.1140   25.2980   -5.7030 ha       346 PS       0.124600
   5537 C2        -10.8240   22.6780   -3.5430 c3       347 PS       0.031000
   5538 C1        -12.2040   23.2680   -3.9230 c3       347 PS       0.000400
   5539 CG        -12.6940   22.6080   -5.2030 ca       347 PS       0.250900
   5540 CD1       -12.6240   23.2480   -6.4430 ca       347 PS      -0.270200
   5541 CE1       -12.8740   22.4380   -7.5830 ca       347 PS      -0.050500
   5542 CZ        -12.9840   21.0480   -7.5230 ca       347 PS      -0.188800
   5543 CE2       -13.0740   20.4780   -6.2930 ca       347 PS      -0.050500
   5544 CD2       -12.9740   21.2480   -5.1630 ca       347 PS      -0.270200
   5545 H21       -10.8840   21.5780   -3.5430 hc       347 PS      -0.016200
   5546 H22       -10.6040   22.9480   -2.5030 hc       347 PS      -0.016200
   5547 H1        -12.0740   24.3280   -4.1430 hc       347 PS      -0.005300
   5548 HD1       -12.4140   24.2980   -6.6030 ha       347 PS       0.124600
   5549 HE1       -13.0340   22.9080   -8.5530 ha       347 PS       0.105800
   5550 HZ        -13.2140   20.4180   -8.3730 ha       347 PS       0.124800
   5551 HE2       -13.3140   19.4180   -6.2830 ha       347 PS       0.105800
   5552 HD2       -13.1440   20.7880   -4.2030 ha       347 PS       0.124600
   5553 C2        -13.2440   23.1280   -2.7930 c3       348 PS       0.031000
   5554 C1        -13.6840   24.5480   -2.2330 c3       348 PS       0.000400
   5555 CG        -12.4340   25.2180   -1.5730 ca       348 PS       0.250900
   5556 CD1       -12.0240   26.5080   -2.0130 ca       348 PS      -0.270200
   5557 CE1       -10.8640   27.0080   -1.4830 ca       348 PS      -0.050500
   5558 CZ        -10.1540   26.3980   -0.4530 ca       348 PS      -0.188800
   5559 CE2       -10.6240   25.2180    0.0670 ca       348 PS      -0.050500
   5560 CD2       -11.7640   24.5980   -0.5030 ca       348 PS      -0.270200
   5561 H21       -14.1040   22.6280   -3.2430 hc       348 PS      -0.016200
   5562 H22       -12.8440   22.4980   -1.9930 hc       348 PS      -0.016200
   5563 H1        -14.0540   25.1180   -3.0930 hc       348 PS      -0.005300
   5564 HD1       -12.5140   26.9280   -2.8930 ha       348 PS       0.124600
   5565 HE1       -10.4940   27.9480   -1.8930 ha       348 PS       0.105800
   5566 HZ         -9.3340   26.8880    0.0570 ha       348 PS       0.124800
   5567 HE2       -10.0040   24.7580    0.8270 ha       348 PS       0.105800
   5568 HD2       -12.1140   23.6380   -0.1230 ha       348 PS       0.124600
   5569 C2        -14.9540   24.2880   -1.3230 c3       349 PS       0.031000
   5570 C1        -15.5840   25.6080   -0.6930 c3       349 PS       0.000400
   5571 CG        -14.5840   26.3880    0.1770 ca       349 PS       0.250900
   5572 CD1       -14.3340   27.7280   -0.1830 ca       349 PS      -0.270200
   5573 CE1       -13.4440   28.4580    0.6670 ca       349 PS      -0.050500
   5574 CZ        -13.1540   27.9280    1.8770 ca       349 PS      -0.188800
   5575 CE2       -13.4040   26.6280    2.1970 ca       349 PS      -0.050500
   5576 CD2       -14.1940   25.8580    1.3770 ca       349 PS      -0.270200
   5577 H21       -15.6640   23.7180   -1.9330 hc       349 PS      -0.016200
   5578 H22       -14.6440   23.6180   -0.5130 hc       349 PS      -0.016200
   5579 H1        -15.8840   26.2380   -1.5330 hc       349 PS      -0.005300
   5580 HD1       -14.7540   28.1680   -1.0830 ha       349 PS       0.124600
   5581 HE1       -13.3840   29.5280    0.5270 ha       349 PS       0.105800
   5582 HZ        -12.5940   28.5380    2.5770 ha       349 PS       0.124800
   5583 HE2       -13.0940   26.2980    3.1870 ha       349 PS       0.105800
   5584 HD2       -14.4540   24.8180    1.5770 ha       349 PS       0.124600
   5585 C2        -16.8440   25.2180    0.1370 c3       350 PS       0.031000
   5586 C1        -17.4740   26.3580    0.9470 c3       350 PS       0.000400
   5587 CG        -17.9840   27.4580    0.0170 ca       350 PS       0.250900
   5588 CD1       -18.8840   27.2180   -1.0730 ca       350 PS      -0.270200
   5589 CE1       -19.2740   28.3380   -1.8630 ca       350 PS      -0.050500
   5590 CZ        -18.6640   29.5980   -1.6330 ca       350 PS      -0.188800
   5591 CE2       -17.6640   29.7480   -0.6730 ca       350 PS      -0.050500
   5592 CD2       -17.2840   28.7180    0.1970 ca       350 PS      -0.270200
   5593 H21       -17.6140   24.8280   -0.5430 hc       350 PS      -0.016200
   5594 H22       -16.7740   24.3580    0.8170 hc       350 PS      -0.016200
   5595 H1        -16.6840   26.7580    1.5970 hc       350 PS      -0.005300
   5596 HD1       -19.4040   26.2780   -1.1830 ha       350 PS       0.124600
   5597 HE1       -20.0140   28.2380   -2.6530 ha       350 PS       0.105800
   5598 HZ        -18.8540   30.3980   -2.3530 ha       350 PS       0.124800
   5599 HE2       -17.1540   30.7080   -0.6630 ha       350 PS       0.105800
   5600 HD2       -16.4240   28.9080    0.8370 ha       350 PS       0.124600
   5601 C2        -18.6140   25.7880    1.8370 c3       351 PS       0.031000
   5602 C1        -18.7640   26.7380    3.1370 c3       351 PS       0.000400
   5603 CG        -17.5240   26.4480    3.9970 ca       351 PS       0.250900
   5604 CD1       -16.4240   27.2980    4.0870 ca       351 PS      -0.270200
   5605 CE1       -15.3540   27.0680    4.9370 ca       351 PS      -0.050500
   5606 CZ        -15.3640   25.8780    5.7970 ca       351 PS      -0.188800
   5607 CE2       -16.4240   24.9380    5.7070 ca       351 PS      -0.050500
   5608 CD2       -17.5340   25.3380    4.8970 ca       351 PS      -0.270200
   5609 H21       -19.5340   25.7280    1.2570 hc       351 PS      -0.016200
   5610 H22       -18.3240   24.8180    2.2870 hc       351 PS      -0.016200
   5611 H1        -18.6040   27.7680    2.8070 hc       351 PS      -0.005300
   5612 HD1       -16.4340   28.1580    3.4170 ha       351 PS       0.124600
   5613 HE1       -14.6440   27.8880    4.9570 ha       351 PS       0.105800
   5614 HZ        -14.5840   25.7380    6.5370 ha       351 PS       0.124800
   5615 HE2       -16.4140   24.0780    6.3670 ha       351 PS       0.105800
   5616 HD2       -18.3840   24.6680    4.9370 ha       351 PS       0.124600
   5617 C2        -20.1740   26.4380    3.8870 c3       352 PS       0.031000
   5618 C1        -21.4240   27.1380    3.3670 c3       352 PS       0.000400
   5619 CG        -22.4240   27.3480    4.5670 ca       352 PS       0.250900
   5620 CD1       -23.4240   26.3880    4.9070 ca       352 PS      -0.270200
   5621 CE1       -24.2240   26.4880    6.0670 ca       352 PS      -0.050500
   5622 CZ        -24.0040   27.5180    7.0170 ca       352 PS      -0.188800
   5623 CE2       -23.0540   28.4780    6.7370 ca       352 PS      -0.050500
   5624 CD2       -22.2240   28.4080    5.5670 ca       352 PS      -0.270200
   5625 H21       -20.4640   25.3780    3.8570 hc       352 PS      -0.016200
   5626 H22       -20.0040   26.5980    4.9570 hc       352 PS      -0.016200
   5627 H1        -21.9440   26.4580    2.6870 hc       352 PS      -0.005300
   5628 HD1       -23.6340   25.5380    4.2670 ha       352 PS       0.124600
   5629 HE1       -24.9140   25.7180    6.4170 ha       352 PS       0.105800
   5630 HZ        -24.5640   27.4980    7.9470 ha       352 PS       0.124800
   5631 HE2       -22.9740   29.3080    7.4370 ha       352 PS       0.105800
   5632 HD2       -21.3740   29.0680    5.4870 ha       352 PS       0.124600
   5633 C2        -21.1740   28.4580    2.6170 c3       353 PS       0.031000
   5634 C1        -22.4840   28.8680    1.7670 c3       353 PS       0.000400
   5635 CG        -23.0640   27.7680    0.8270 ca       353 PS       0.250900
   5636 CD1       -24.4140   27.4480    0.9970 ca       353 PS      -0.270200
   5637 CE1       -24.9540   26.4280    0.2070 ca       353 PS      -0.050500
   5638 CZ        -24.1340   25.8280   -0.8130 ca       353 PS      -0.188800
   5639 CE2       -22.7740   26.0380   -0.8630 ca       353 PS      -0.050500
   5640 CD2       -22.2540   27.0380   -0.0130 ca       353 PS      -0.270200
   5641 H21       -20.9140   29.2780    3.2970 hc       353 PS      -0.016200
   5642 H22       -20.3340   28.3680    1.9170 hc       353 PS      -0.016200
   5643 H1        -23.2340   29.2980    2.4370 hc       353 PS      -0.005300
   5644 HD1       -25.1040   28.0080    1.6370 ha       353 PS       0.124600
   5645 HE1       -25.9540   25.9980    0.2770 ha       353 PS       0.105800
   5646 HZ        -24.6340   25.0680   -1.4130 ha       353 PS       0.124800
   5647 HE2       -22.1040   25.3980   -1.4130 ha       353 PS       0.105800
   5648 HD2       -21.2040   27.2980   -0.0330 ha       353 PS       0.124600
   5649 C2        -22.1940   30.1580    0.8770 c3       354 PS       0.031000
   5650 C1        -23.5440   30.5880    0.1670 c3       354 PS       0.000400
   5651 CG        -23.9240   29.7180   -1.0330 ca       354 PS       0.250900
   5652 CD1       -25.3440   29.4580   -1.2230 ca       354 PS      -0.270200
   5653 CE1       -25.9540   28.9580   -2.3830 ca       354 PS      -0.050500
   5654 CZ        -25.0240   28.5180   -3.3430 ca       354 PS      -0.188800
   5655 CE2       -23.6640   28.6880   -3.1530 ca       354 PS      -0.050500
   5656 CD2       -23.0440   29.4080   -2.0430 ca       354 PS      -0.270200
   5657 H21       -21.8540   30.9180    1.5770 hc       354 PS      -0.016200
   5658 H22       -21.3540   30.0280    0.1870 hc       354 PS      -0.016200
   5659 H1        -24.3140   30.6480    0.9370 hc       354 PS      -0.005300
   5660 HD1       -26.0040   29.8380   -0.4430 ha       354 PS       0.124600
   5661 HE1       -27.0240   28.9080   -2.5330 ha       354 PS       0.105800
   5662 HZ        -25.3740   28.1280   -4.2930 ha       354 PS       0.124800
   5663 HE2       -22.9740   28.3080   -3.8930 ha       354 PS       0.105800
   5664 HD2       -21.9840   29.5780   -1.8930 ha       354 PS       0.124600
   5665 C2        -23.2940   32.0680   -0.2530 c3       355 PS       0.031000
   5666 C1        -24.4740   32.9080   -0.8230 c3       355 PS       0.000400
   5667 CG        -23.8440   34.2880   -1.0930 ca       355 PS       0.250900
   5668 CD1       -23.1640   34.5380   -2.3130 ca       355 PS      -0.270200
   5669 CE1       -22.7840   35.7980   -2.7330 ca       355 PS      -0.050500
   5670 CZ        -23.0840   36.8680   -1.9530 ca       355 PS      -0.188800
   5671 CE2       -23.6840   36.6880   -0.6730 ca       355 PS      -0.050500
   5672 CD2       -23.9740   35.3980   -0.2330 ca       355 PS      -0.270200
   5673 H21       -22.9640   32.6480    0.6170 hc       355 PS      -0.016200
   5674 H22       -22.3940   32.1880   -0.8630 hc       355 PS      -0.016200
   5675 H1        -24.8440   32.4780   -1.7630 hc       355 PS      -0.005300
   5676 HD1       -22.9040   33.7380   -3.0030 ha       355 PS       0.124600
   5677 HE1       -22.2640   35.8680   -3.6830 ha       355 PS       0.105800
   5678 HZ        -22.8340   37.8680   -2.2730 ha       355 PS       0.124800
   5679 HE2       -23.5740   37.5480   -0.0130 ha       355 PS       0.105800
   5680 HD2       -24.3540   35.2380    0.7770 ha       355 PS       0.124600
   5681 C2        -25.6540   32.9580    0.2870 c3       356 PS       0.031000
   5682 C1        -26.9040   33.8380   -0.1230 c3       356 PS       0.000400
   5683 CG        -27.5840   34.3880    1.2070 ca       356 PS       0.250900
   5684 CD1       -27.4040   35.7380    1.4470 ca       356 PS      -0.270200
   5685 CE1       -28.0540   36.2780    2.5970 ca       356 PS      -0.050500
   5686 CZ        -28.7040   35.4680    3.5770 ca       356 PS      -0.188800
   5687 CE2       -28.9240   34.1080    3.2770 ca       356 PS      -0.050500
   5688 CD2       -28.3340   33.5980    2.0670 ca       356 PS      -0.270200
   5689 H21       -26.0640   31.9680    0.5270 hc       356 PS      -0.016200
   5690 H22       -25.2340   33.2980    1.2470 hc       356 PS      -0.016200
   5691 H1        -26.4440   34.7480   -0.5130 hc       356 PS      -0.005300
   5692 HD1       -26.7140   36.3480    0.8770 ha       356 PS       0.124600
   5693 HE1       -27.9440   37.3580    2.7070 ha       356 PS       0.105800
   5694 HZ        -29.0340   35.9980    4.4670 ha       356 PS       0.124800
   5695 HE2       -29.4240   33.4780    4.0070 ha       356 PS       0.105800
   5696 HD2       -28.5440   32.5580    1.8170 ha       356 PS       0.124600
   5697 C2        -27.8640   33.0880   -1.0830 c3       357 PS       0.031000
   5698 C1        -29.1640   33.8780   -1.4730 c3       357 PS       0.000400
   5699 CG        -28.7940   35.3680   -1.7030 ca       357 PS       0.250900
   5700 CD1       -27.7540   35.7780   -2.4730 ca       357 PS      -0.270200
   5701 CE1       -27.2840   37.0980   -2.6130 ca       357 PS      -0.050500
   5702 CZ        -27.9140   38.0980   -1.8630 ca       357 PS      -0.188800
   5703 CE2       -29.0640   37.7080   -1.0230 ca       357 PS      -0.050500
   5704 CD2       -29.4240   36.3480   -0.9430 ca       357 PS      -0.270200
   5705 H21       -27.3840   32.7580   -2.0230 hc       357 PS      -0.016200
   5706 H22       -28.2140   32.1680   -0.5930 hc       357 PS      -0.016200
   5707 H1        -29.9040   33.7580   -0.6630 hc       357 PS      -0.005300
   5708 HD1       -27.1540   35.0180   -2.9630 ha       357 PS       0.124600
   5709 HE1       -26.4040   37.3280   -3.2130 ha       357 PS       0.105800
   5710 HZ        -27.6240   39.1380   -1.8730 ha       357 PS       0.124800
   5711 HE2       -29.6440   38.4880   -0.5330 ha       357 PS       0.105800
   5712 HD2       -30.2740   36.0180   -0.3430 ha       357 PS       0.124600
   5713 C2        -29.8740   33.2880   -2.6630 c3       358 PS       0.031000
   5714 C1        -30.2940   31.7880   -2.6530 c3       358 PS       0.000400
   5715 CG        -31.0940   31.4080   -1.3930 ca       358 PS       0.250900
   5716 CD1       -30.9240   30.1780   -0.7830 ca       358 PS      -0.270200
   5717 CE1       -31.7840   29.8080    0.3070 ca       358 PS      -0.050500
   5718 CZ        -32.8740   30.5980    0.6470 ca       358 PS      -0.188800
   5719 CE2       -33.0840   31.8480   -0.0230 ca       358 PS      -0.050500
   5720 CD2       -32.1840   32.2080   -1.0330 ca       358 PS      -0.270200
   5721 H21       -30.8040   33.8380   -2.8230 hc       358 PS      -0.016200
   5722 H22       -29.2740   33.5080   -3.5630 hc       358 PS      -0.016200
   5723 H1        -29.3440   31.2380   -2.5730 hc       358 PS      -0.005300
   5724 HD1       -29.9940   29.6480   -0.9530 ha       358 PS       0.124600
   5725 HE1       -31.6440   28.8880    0.8570 ha       358 PS       0.105800
   5726 HZ        -33.5840   30.3380    1.4270 ha       358 PS       0.124800
   5727 HE2       -33.8440   32.5780    0.2370 ha       358 PS       0.105800
   5728 HD2       -32.3740   33.1480   -1.5430 ha       358 PS       0.124600
   5729 C2        -31.0540   31.4980   -3.9230 c3       359 PS       0.031000
   5730 C1        -31.3340   29.9980   -4.1530 c3       359 PS       0.000400
   5731 CG        -32.2440   29.7680   -5.4030 ca       359 PS       0.250900
   5732 CD1       -33.2040   28.7280   -5.3930 ca       359 PS      -0.270200
   5733 CE1       -34.1040   28.5180   -6.4530 ca       359 PS      -0.050500
   5734 CZ        -34.1040   29.4080   -7.5430 ca       359 PS      -0.188800
   5735 CE2       -33.1040   30.4580   -7.6030 ca       359 PS      -0.050500
   5736 CD2       -32.1240   30.5480   -6.5830 ca       359 PS      -0.270200
   5737 H21       -32.0040   32.0380   -3.9230 hc       359 PS      -0.016200
   5738 H22       -30.5640   31.9080   -4.8230 hc       359 PS      -0.016200
   5739 H1        -31.9240   29.6180   -3.3130 hc       359 PS      -0.005300
   5740 HD1       -33.3740   28.1780   -4.4730 ha       359 PS       0.124600
   5741 HE1       -34.8240   27.6980   -6.4830 ha       359 PS       0.105800
   5742 HZ        -34.8940   29.2480   -8.2730 ha       359 PS       0.124800
   5743 HE2       -33.1040   31.0980   -8.4830 ha       359 PS       0.105800
   5744 HD2       -31.3340   31.2780   -6.7330 ha       359 PS       0.124600
   5745 C2        -30.0440   29.0480   -4.2630 c3       360 PS       0.031000
   5746 C1        -30.4740   27.6480   -4.2130 c3       360 PS       0.000400
   5747 CG        -29.6540   26.8880   -3.1930 ca       360 PS       0.250900
   5748 CD1       -28.3140   26.5680   -3.5830 ca       360 PS      -0.270200
   5749 CE1       -27.4540   25.8380   -2.6430 ca       360 PS      -0.050500
   5750 CZ        -28.0240   25.5780   -1.3530 ca       360 PS      -0.188800
   5751 CE2       -29.3340   26.0080   -0.9730 ca       360 PS      -0.050500
   5752 CD2       -30.1540   26.6280   -1.9230 ca       360 PS      -0.270200
   5753 H21       -29.4840   29.1080   -5.2030 hc       360 PS      -0.016200
   5754 H22       -29.3540   29.2980   -3.4530 hc       360 PS      -0.016200
   5755 H1        -30.4940   27.1880   -5.2030 hc       360 PS      -0.005300
   5756 HD1       -27.8740   26.8980   -4.5130 ha       360 PS       0.124600
   5757 HE1       -26.4640   25.4480   -2.8830 ha       360 PS       0.105800
   5758 HZ        -27.4640   24.8280   -0.7930 ha       360 PS       0.124800
   5759 HE2       -29.7640   25.6980   -0.0230 ha       360 PS       0.105800
   5760 HD2       -31.1140   26.9880   -1.5730 ha       360 PS       0.124600
   5761 C2        -11.8840  -11.3720   -4.0630 c3       361 PS       0.031000
   5762 C1        -13.1640  -12.2920   -4.0030 c3       361 PS       0.000400
   5763 CG        -14.1640  -11.8720   -5.0930 ca       361 PS       0.250900
   5764 CD1       -15.2140  -10.9420   -4.8030 ca       361 PS      -0.270200
   5765 CE1       -16.0040  -10.5320   -5.9730 ca       361 PS      -0.050500
   5766 CZ        -15.8640  -11.0820   -7.2030 ca       361 PS      -0.188800
   5767 CE2       -14.8740  -11.9920   -7.4230 ca       361 PS      -0.050500
   5768 CD2       -13.9540  -12.3120   -6.4330 ca       361 PS      -0.270200
   5769 H21       -11.0740  -11.6720   -3.3930 hc       361 PS      -0.016200
   5770 H22       -12.1340  -10.3220   -3.8530 hc       361 PS      -0.016200
   5771 H1        -13.7140  -12.2020   -3.0530 hc       361 PS      -0.005300
   5772 HD1       -15.4540  -10.5520   -3.8130 ha       361 PS       0.124600
   5773 HE1       -16.6640   -9.6720   -5.9030 ha       361 PS       0.105800
   5774 HZ        -16.5240  -10.6720   -7.9530 ha       361 PS       0.124800
   5775 HE2       -14.7540  -12.4120   -8.4130 ha       361 PS       0.105800
   5776 HD2       -13.1240  -12.9620   -6.6730 ha       361 PS       0.124600
   5777 C2        -12.7740  -13.8420   -4.0830 c3       362 PS       0.031000
   5778 C1        -14.0540  -14.7620   -3.9130 c3       362 PS       0.000400
   5779 CG        -14.2440  -15.8720   -4.9330 ca       362 PS       0.250900
   5780 CD1       -13.3240  -16.8820   -5.1030 ca       362 PS      -0.270200
   5781 CE1       -13.4240  -17.7720   -6.1930 ca       362 PS      -0.050500
   5782 CZ        -14.3540  -17.4720   -7.2130 ca       362 PS      -0.188800
   5783 CE2       -15.2840  -16.4320   -7.0630 ca       362 PS      -0.050500
   5784 CD2       -15.2740  -15.6720   -5.8730 ca       362 PS      -0.270200
   5785 H21       -12.3340  -14.0520   -5.0630 hc       362 PS      -0.016200
   5786 H22       -12.1040  -14.0820   -3.2530 hc       362 PS      -0.016200
   5787 H1        -14.9040  -14.0920   -4.1130 hc       362 PS      -0.005300
   5788 HD1       -12.4840  -16.9020   -4.4230 ha       362 PS       0.124600
   5789 HE1       -12.5940  -18.4220   -6.4530 ha       362 PS       0.105800
   5790 HZ        -14.4440  -17.9820   -8.1630 ha       362 PS       0.124800
   5791 HE2       -15.9940  -16.1020   -7.8230 ha       362 PS       0.105800
   5792 HD2       -15.9740  -14.8420   -5.7930 ha       362 PS       0.124600
   5793 C2        -14.1440  -15.3120   -2.4530 c3       363 PS       0.031000
   5794 C1        -15.5440  -15.6120   -1.9130 c3       363 PS       0.000400
   5795 CG        -15.5940  -16.5320   -0.6630 ca       363 PS       0.250900
   5796 CD1       -15.1440  -16.1820    0.6170 ca       363 PS      -0.270200
   5797 CE1       -15.3440  -16.9320    1.7670 ca       363 PS      -0.050500
   5798 CZ        -16.0640  -18.1520    1.6670 ca       363 PS      -0.188800
   5799 CE2       -16.3840  -18.6120    0.3570 ca       363 PS      -0.050500
   5800 CD2       -16.2040  -17.8120   -0.7730 ca       363 PS      -0.270200
   5801 H21       -13.5540  -16.2120   -2.2530 hc       363 PS      -0.016200
   5802 H22       -13.7340  -14.5020   -1.8330 hc       363 PS      -0.016200
   5803 H1        -16.1740  -16.0420   -2.7030 hc       363 PS      -0.005300
   5804 HD1       -14.6940  -15.1920    0.7170 ha       363 PS       0.124600
   5805 HE1       -14.9740  -16.5720    2.7170 ha       363 PS       0.105800
   5806 HZ        -16.3640  -18.7620    2.5070 ha       363 PS       0.124800
   5807 HE2       -16.9240  -19.5520    0.2570 ha       363 PS       0.105800
   5808 HD2       -16.5540  -18.2820   -1.6930 ha       363 PS       0.124600
   5809 C2        -16.2440  -14.2420   -1.5030 c3       364 PS       0.031000
   5810 C1        -17.6740  -14.4720   -1.2530 c3       364 PS       0.000400
   5811 CG        -18.5340  -13.9320   -2.3730 ca       364 PS       0.250900
   5812 CD1       -18.4540  -12.5820   -2.8330 ca       364 PS      -0.270200
   5813 CE1       -19.4240  -12.1420   -3.8030 ca       364 PS      -0.050500
   5814 CZ        -20.3640  -13.0320   -4.3130 ca       364 PS      -0.188800
   5815 CE2       -20.4040  -14.3820   -3.9630 ca       364 PS      -0.050500
   5816 CD2       -19.5540  -14.8520   -2.8930 ca       364 PS      -0.270200
   5817 H21       -15.7940  -13.8420   -0.5730 hc       364 PS      -0.016200
   5818 H22       -16.0840  -13.5920   -2.3730 hc       364 PS      -0.016200
   5819 H1        -17.8940  -15.5420   -1.2630 hc       364 PS      -0.005300
   5820 HD1       -17.7040  -11.9120   -2.4430 ha       364 PS       0.124600
   5821 HE1       -19.4040  -11.2020   -4.3530 ha       364 PS       0.105800
   5822 HZ        -20.9440  -12.7220   -5.1730 ha       364 PS       0.124800
   5823 HE2       -21.0540  -15.1520   -4.3630 ha       364 PS       0.105800
   5824 HD2       -19.7040  -15.9020   -2.6530 ha       364 PS       0.124600
   5825 C2        -18.0640  -13.8920    0.1370 c3       365 PS       0.031000
   5826 C1        -19.6140  -14.0220    0.3670 c3       365 PS       0.000400
   5827 CG        -20.1840  -15.4520    0.4170 ca       365 PS       0.250900
   5828 CD1       -21.5340  -15.6520    0.1570 ca       365 PS      -0.270200
   5829 CE1       -22.0940  -16.9820    0.2970 ca       365 PS      -0.050500
   5830 CZ        -21.2640  -17.9520    0.7870 ca       365 PS      -0.188800
   5831 CE2       -19.9640  -17.6920    1.1470 ca       365 PS      -0.050500
   5832 CD2       -19.3740  -16.5120    0.8970 ca       365 PS      -0.270200
   5833 H21       -17.5240  -14.4720    0.8970 hc       365 PS      -0.016200
   5834 H22       -17.7540  -12.8420    0.1570 hc       365 PS      -0.016200
   5835 H1        -20.1340  -13.4320   -0.4030 hc       365 PS      -0.005300
   5836 HD1       -22.1440  -14.8820   -0.3030 ha       365 PS       0.124600
   5837 HE1       -23.1440  -17.1920    0.1370 ha       365 PS       0.105800
   5838 HZ        -21.6840  -18.9620    0.8470 ha       365 PS       0.124800
   5839 HE2       -19.2540  -18.4620    1.4370 ha       365 PS       0.105800
   5840 HD2       -18.3140  -16.3720    1.0570 ha       365 PS       0.124600
   5841 C2        -20.0740  -13.2120    1.5970 c3       366 PS       0.031000
   5842 C1        -19.9140  -13.8020    3.0470 c3       366 PS       0.000400
   5843 CG        -18.5440  -14.1020    3.4770 ca       366 PS       0.250900
   5844 CD1       -17.5840  -13.0920    3.4370 ca       366 PS      -0.270200
   5845 CE1       -16.3040  -13.4020    3.9470 ca       366 PS      -0.050500
   5846 CZ        -16.0340  -14.6320    4.3670 ca       366 PS      -0.188800
   5847 CE2       -16.9640  -15.7120    4.3170 ca       366 PS      -0.050500
   5848 CD2       -18.2640  -15.3520    3.9770 ca       366 PS      -0.270200
   5849 H21       -19.4840  -12.3020    1.4970 hc       366 PS      -0.016200
   5850 H22       -21.0540  -12.7620    1.4170 hc       366 PS      -0.016200
   5851 H1        -20.4640  -14.7420    2.9770 hc       366 PS      -0.005300
   5852 HD1       -17.9140  -12.0920    3.1570 ha       366 PS       0.124600
   5853 HE1       -15.6340  -12.5820    4.1970 ha       366 PS       0.105800
   5854 HZ        -15.0940  -14.8520    4.8770 ha       366 PS       0.124800
   5855 HE2       -16.6840  -16.6920    4.6970 ha       366 PS       0.105800
   5856 HD2       -19.0740  -16.0720    4.0970 ha       366 PS       0.124600
   5857 C2        -20.7640  -12.9420    3.9270 c3       367 PS       0.031000
   5858 C1        -20.9540  -13.6020    5.3970 c3       367 PS       0.000400
   5859 CG        -19.7340  -13.3920    6.2770 ca       367 PS       0.250900
   5860 CD1       -19.0040  -12.2020    6.3570 ca       367 PS      -0.270200
   5861 CE1       -17.9740  -12.0720    7.2970 ca       367 PS      -0.050500
   5862 CZ        -17.5040  -13.2220    7.9170 ca       367 PS      -0.188800
   5863 CE2       -18.1140  -14.4520    7.7570 ca       367 PS      -0.050500
   5864 CD2       -19.2340  -14.5120    6.9570 ca       367 PS      -0.270200
   5865 H21       -20.4240  -11.9220    4.1170 hc       367 PS      -0.016200
   5866 H22       -21.7340  -12.9120    3.4070 hc       367 PS      -0.016200
   5867 H1        -21.0840  -14.6720    5.1970 hc       367 PS      -0.005300
   5868 HD1       -19.3140  -11.3220    5.7970 ha       367 PS       0.124600
   5869 HE1       -17.3940  -11.1820    7.5170 ha       367 PS       0.105800
   5870 HZ        -16.6040  -13.0820    8.5170 ha       367 PS       0.124800
   5871 HE2       -17.7640  -15.3620    8.2470 ha       367 PS       0.105800
   5872 HD2       -19.7440  -15.4520    6.7770 ha       367 PS       0.124600
   5873 C2        -22.3240  -13.2220    6.0370 c3       368 PS       0.031000
   5874 C1        -23.0340  -14.3420    6.7870 c3       368 PS       0.000400
   5875 CG        -23.5440  -15.4820    5.9270 ca       368 PS       0.250900
   5876 CD1       -24.0440  -16.7020    6.4770 ca       368 PS      -0.270200
   5877 CE1       -24.7540  -17.6920    5.6970 ca       368 PS      -0.050500
   5878 CZ        -24.8440  -17.5320    4.2470 ca       368 PS      -0.188800
   5879 CE2       -24.2040  -16.4620    3.6770 ca       368 PS      -0.050500
   5880 CD2       -23.6740  -15.4420    4.5070 ca       368 PS      -0.270200
   5881 H21       -22.0440  -12.4220    6.7270 hc       368 PS      -0.016200
   5882 H22       -22.8740  -12.6920    5.2470 hc       368 PS      -0.016200
   5883 H1        -22.2940  -14.7420    7.4970 hc       368 PS      -0.005300
   5884 HD1       -23.7640  -16.8320    7.5170 ha       368 PS       0.124600
   5885 HE1       -25.1640  -18.6020    6.1470 ha       368 PS       0.105800
   5886 HZ        -25.2740  -18.3420    3.6770 ha       368 PS       0.124800
   5887 HE2       -24.1540  -16.3420    2.5970 ha       368 PS       0.105800
   5888 HD2       -23.1540  -14.6220    4.0070 ha       368 PS       0.124600
   5889 C2        -24.1140  -13.6720    7.6970 c3       369 PS       0.031000
   5890 C1        -25.3640  -13.1720    6.9170 c3       369 PS       0.000400
   5891 CG        -26.2740  -14.2420    6.5270 ca       369 PS       0.250900
   5892 CD1       -26.9540  -15.0420    7.4770 ca       369 PS      -0.270200
   5893 CE1       -27.6140  -16.1920    7.1570 ca       369 PS      -0.050500
   5894 CZ        -27.8540  -16.5520    5.8170 ca       369 PS      -0.188800
   5895 CE2       -27.2840  -15.7720    4.8270 ca       369 PS      -0.050500
   5896 CD2       -26.4740  -14.6220    5.1870 ca       369 PS      -0.270200
   5897 H21       -24.5040  -14.4520    8.3670 hc       369 PS      -0.016200
   5898 H22       -23.6240  -12.8120    8.1670 hc       369 PS      -0.016200
   5899 H1        -25.0440  -12.7120    5.9770 hc       369 PS      -0.005300
   5900 HD1       -26.7240  -14.9620    8.5370 ha       369 PS       0.124600
   5901 HE1       -27.9640  -16.8620    7.9370 ha       369 PS       0.105800
   5902 HZ        -28.3840  -17.4520    5.5070 ha       369 PS       0.124800
   5903 HE2       -27.3740  -16.0320    3.7770 ha       369 PS       0.105800
   5904 HD2       -25.9340  -14.0320    4.4570 ha       369 PS       0.124600
   5905 C2        -26.0340  -11.9820    7.6570 c3       370 PS       0.031000
   5906 C1        -26.9240  -11.0320    6.7670 c3       370 PS       0.000400
   5907 CG        -28.1140  -11.8020    6.1670 ca       370 PS       0.250900
   5908 CD1       -29.2140  -12.3220    6.9570 ca       370 PS      -0.270200
   5909 CE1       -30.2840  -12.9920    6.2770 ca       370 PS      -0.050500
   5910 CZ        -30.2940  -13.0520    4.8470 ca       370 PS      -0.188800
   5911 CE2       -29.1840  -12.5420    4.1270 ca       370 PS      -0.050500
   5912 CD2       -28.1740  -11.8420    4.7470 ca       370 PS      -0.270200
   5913 H21       -26.5040  -12.3020    8.5870 hc       370 PS      -0.016200
   5914 H22       -25.1940  -11.3320    7.9270 hc       370 PS      -0.016200
   5915 H1        -26.3340  -10.6220    5.9370 hc       370 PS      -0.005300
   5916 HD1       -29.2140  -12.2320    8.0370 ha       370 PS       0.124600
   5917 HE1       -31.1540  -13.3220    6.8370 ha       370 PS       0.105800
   5918 HZ        -31.0940  -13.5020    4.2670 ha       370 PS       0.124800
   5919 HE2       -29.1940  -12.5620    3.0370 ha       370 PS       0.105800
   5920 HD2       -27.4940  -11.2420    4.1570 ha       370 PS       0.124600
   5921 C2        -27.5540   -9.8520    7.6270 c3       371 PS       0.031000
   5922 C1        -28.2940   -8.7820    6.6970 c3       371 PS       0.000400
   5923 CG        -27.3940   -7.7320    6.0570 ca       371 PS       0.250900
   5924 CD1       -26.9840   -7.8520    4.7070 ca       371 PS      -0.270200
   5925 CE1       -26.2940   -6.8320    4.0370 ca       371 PS      -0.050500
   5926 CZ        -25.8340   -5.7820    4.8170 ca       371 PS      -0.188800
   5927 CE2       -26.0940   -5.7220    6.2070 ca       371 PS      -0.050500
   5928 CD2       -26.8340   -6.6920    6.8270 ca       371 PS      -0.270200
   5929 H21       -28.2940  -10.1720    8.3770 hc       371 PS      -0.016200
   5930 H22       -26.7240   -9.3520    8.1370 hc       371 PS      -0.016200
   5931 H1        -28.8540   -9.3120    5.9170 hc       371 PS      -0.005300
   5932 HD1       -27.3640   -8.6920    4.1270 ha       371 PS       0.124600
   5933 HE1       -26.2240   -6.7720    2.9470 ha       371 PS       0.105800
   5934 HZ        -25.1640   -5.0820    4.3270 ha       371 PS       0.124800
   5935 HE2       -25.5740   -4.9620    6.7770 ha       371 PS       0.105800
   5936 HD2       -27.0340   -6.5820    7.8870 ha       371 PS       0.124600
   5937 C2        -29.3740   -8.0720    7.5070 c3       372 PS       0.031000
   5938 C1        -30.4140   -7.2820    6.6570 c3       372 PS       0.000400
   5939 CG        -29.8340   -5.8620    6.3270 ca       372 PS       0.250900
   5940 CD1       -30.0540   -5.3620    4.9570 ca       372 PS      -0.270200
   5941 CE1       -29.6140   -4.1320    4.5170 ca       372 PS      -0.050500
   5942 CZ        -28.9740   -3.2820    5.4270 ca       372 PS      -0.188800
   5943 CE2       -28.9140   -3.6020    6.8470 ca       372 PS      -0.050500
   5944 CD2       -29.3240   -4.9120    7.2570 ca       372 PS      -0.270200
   5945 H21       -29.8740   -8.7820    8.1670 hc       372 PS      -0.016200
   5946 H22       -28.9040   -7.3820    8.2270 hc       372 PS      -0.016200
   5947 H1        -30.5140   -7.7920    5.6870 hc       372 PS      -0.005300
   5948 HD1       -30.4740   -5.9620    4.1570 ha       372 PS       0.124600
   5949 HE1       -29.7240   -3.7420    3.5070 ha       372 PS       0.105800
   5950 HZ        -28.5940   -2.3420    5.0570 ha       372 PS       0.124800
   5951 HE2       -28.4940   -2.9120    7.5670 ha       372 PS       0.105800
   5952 HD2       -29.3440   -5.0920    8.3270 ha       372 PS       0.124600
   5953 C2        -31.7640   -7.1320    7.5270 c3       373 PS       0.031000
   5954 C1        -32.7940   -6.3220    6.7470 c3       373 PS       0.000400
   5955 CG        -33.9040   -7.2320    6.2470 ca       373 PS       0.250900
   5956 CD1       -34.0640   -7.3420    4.8770 ca       373 PS      -0.270200
   5957 CE1       -35.0340   -8.2820    4.4070 ca       373 PS      -0.050500
   5958 CZ        -35.5740   -9.2620    5.2670 ca       373 PS      -0.188800
   5959 CE2       -35.3840   -9.1320    6.6570 ca       373 PS      -0.050500
   5960 CD2       -34.6340   -8.0320    7.1270 ca       373 PS      -0.270200
   5961 H21       -32.1040   -8.1420    7.7970 hc       373 PS      -0.016200
   5962 H22       -31.5440   -6.6620    8.4970 hc       373 PS      -0.016200
   5963 H1        -32.2940   -5.9220    5.8570 hc       373 PS      -0.005300
   5964 HD1       -33.5340   -6.6320    4.2470 ha       373 PS       0.124600
   5965 HE1       -35.2240   -8.3420    3.3370 ha       373 PS       0.105800
   5966 HZ        -36.1140  -10.0220    4.7270 ha       373 PS       0.124800
   5967 HE2       -35.8940   -9.8120    7.3470 ha       373 PS       0.105800
   5968 HD2       -34.6340   -7.7920    8.1870 ha       373 PS       0.124600
   5969 C2        -33.1040   -4.9220    7.3970 c3       374 PS       0.031000
   5970 C1        -34.2340   -4.0720    6.6870 c3       374 PS       0.000400
   5971 CG        -34.2940   -4.2720    5.1170 ca       374 PS       0.250900
   5972 CD1       -33.1740   -4.0220    4.2770 ca       374 PS      -0.270200
   5973 CE1       -33.2440   -4.2220    2.9070 ca       374 PS      -0.050500
   5974 CZ        -34.4540   -4.6020    2.3370 ca       374 PS      -0.188800
   5975 CE2       -35.5740   -4.6820    3.1470 ca       374 PS      -0.050500
   5976 CD2       -35.5140   -4.5220    4.5470 ca       374 PS      -0.270200
   5977 H21       -33.4840   -5.0020    8.4270 hc       374 PS      -0.016200
   5978 H22       -32.2040   -4.3220    7.1970 hc       374 PS      -0.016200
   5979 H1        -35.1740   -4.4120    7.1370 hc       374 PS      -0.005300
   5980 HD1       -32.2640   -3.8120    4.8270 ha       374 PS       0.124600
   5981 HE1       -32.3140   -4.1820    2.3470 ha       374 PS       0.105800
   5982 HZ        -34.5140   -4.7620    1.2570 ha       374 PS       0.124800
   5983 HE2       -36.5240   -4.8920    2.6670 ha       374 PS       0.105800
   5984 HD2       -36.4140   -4.6520    5.1370 ha       374 PS       0.124600
   5985 C2        -33.9940   -2.5320    6.9570 c3       375 PS       0.031000
   5986 C1        -35.2440   -1.5520    6.8470 c3       375 PS       0.000400
   5987 CG        -35.8540   -1.4220    5.4470 ca       375 PS       0.250900
   5988 CD1       -37.2640   -1.4820    5.4070 ca       375 PS      -0.270200
   5989 CE1       -37.8640   -1.3520    4.1570 ca       375 PS      -0.050500
   5990 CZ        -37.1140   -1.2620    2.9370 ca       375 PS      -0.188800
   5991 CE2       -35.7240   -1.3320    3.0370 ca       375 PS      -0.050500
   5992 CD2       -35.0740   -1.4320    4.2670 ca       375 PS      -0.270200
   5993 H21       -33.5040   -2.4020    7.9370 hc       375 PS      -0.016200
   5994 H22       -33.2340   -2.1420    6.2670 hc       375 PS      -0.016200
   5995 H1        -35.9140   -1.8820    7.6470 hc       375 PS      -0.005300
   5996 HD1       -37.7640   -1.6220    6.3570 ha       375 PS       0.124600
   5997 HE1       -38.9540   -1.3920    4.1370 ha       375 PS       0.105800
   5998 HZ        -37.5040   -1.0720    1.9370 ha       375 PS       0.124800
   5999 HE2       -35.1140   -1.2020    2.1470 ha       375 PS       0.105800
   6000 HD2       -33.9940   -1.5020    4.3170 ha       375 PS       0.124600
   6001 C2        -34.9140   -0.0820    7.4170 c3       376 PS       0.031000
   6002 C1        -34.2140    1.0080    6.5370 c3       376 PS       0.000400
   6003 CG        -32.6940    0.7580    6.2170 ca       376 PS       0.250900
   6004 CD1       -32.3040    0.5180    4.9270 ca       376 PS      -0.270200
   6005 CE1       -30.9440    0.2480    4.6470 ca       376 PS      -0.050500
   6006 CZ        -30.0440    0.1780    5.6870 ca       376 PS      -0.188800
   6007 CE2       -30.4040    0.5080    6.9970 ca       376 PS      -0.050500
   6008 CD2       -31.7840    0.7480    7.2970 ca       376 PS      -0.270200
   6009 H21       -35.8640    0.3080    7.7870 hc       376 PS      -0.016200
   6010 H22       -34.3240   -0.2720    8.3270 hc       376 PS      -0.016200
   6011 H1        -34.6640    1.1780    5.5470 hc       376 PS      -0.005300
   6012 HD1       -32.9440    0.6380    4.0670 ha       376 PS       0.124600
   6013 HE1       -30.6240    0.1680    3.6070 ha       376 PS       0.105800
   6014 HZ        -29.0140   -0.1020    5.4970 ha       376 PS       0.124800
   6015 HE2       -29.6540    0.4180    7.7770 ha       376 PS       0.105800
   6016 HD2       -32.1340    1.0380    8.2770 ha       376 PS       0.124600
   6017 C2        -34.3740    2.3780    7.2970 c3       377 PS       0.031000
   6018 C1        -34.8940    3.5380    6.4570 c3       377 PS       0.000400
   6019 CG        -36.4440    3.2380    6.3270 ca       377 PS       0.250900
   6020 CD1       -36.8640    2.4680    5.2670 ca       377 PS      -0.270200
   6021 CE1       -38.2040    1.9980    5.2770 ca       377 PS      -0.050500
   6022 CZ        -39.0940    2.2780    6.2870 ca       377 PS      -0.188800
   6023 CE2       -38.6940    3.0280    7.3670 ca       377 PS      -0.050500
   6024 CD2       -37.3640    3.4580    7.4070 ca       377 PS      -0.270200
   6025 H21       -35.0040    2.2580    8.1870 hc       377 PS      -0.016200
   6026 H22       -33.4140    2.7380    7.6770 hc       377 PS      -0.016200
   6027 H1        -34.4440    3.5080    5.4570 hc       377 PS      -0.005300
   6028 HD1       -36.2140    2.2980    4.4170 ha       377 PS       0.124600
   6029 HE1       -38.5640    1.3980    4.4370 ha       377 PS       0.105800
   6030 HZ        -40.1440    1.9980    6.2970 ha       377 PS       0.124800
   6031 HE2       -39.3840    3.2380    8.1870 ha       377 PS       0.105800
   6032 HD2       -37.0440    4.0080    8.2970 ha       377 PS       0.124600
   6033 C2        -34.7140    4.9780    7.0970 c3       378 PS       0.031000
   6034 C1        -33.5940    5.7980    6.4570 c3       378 PS       0.000400
   6035 CG        -32.2640    5.0780    6.5470 ca       378 PS       0.250900
   6036 CD1       -31.8340    4.2680    5.4370 ca       378 PS      -0.270200
   6037 CE1       -30.5540    3.6280    5.3670 ca       378 PS      -0.050500
   6038 CZ        -29.7440    3.7180    6.5170 ca       378 PS      -0.188800
   6039 CE2       -30.1340    4.5380    7.5770 ca       378 PS      -0.050500
   6040 CD2       -31.3840    5.1380    7.6370 ca       378 PS      -0.270200
   6041 H21       -35.7040    5.4480    7.1670 hc       378 PS      -0.016200
   6042 H22       -34.5140    4.8780    8.1670 hc       378 PS      -0.016200
   6043 H1        -33.8640    5.9080    5.4070 hc       378 PS      -0.005300
   6044 HD1       -32.4840    4.1180    4.5770 ha       378 PS       0.124600
   6045 HE1       -30.3940    2.9280    4.5370 ha       378 PS       0.105800
   6046 HZ        -28.7240    3.3480    6.5270 ha       378 PS       0.124800
   6047 HE2       -29.3440    4.7680    8.2870 ha       378 PS       0.105800
   6048 HD2       -31.6540    5.7980    8.4570 ha       378 PS       0.124600
   6049 C2        -33.4440    7.2280    6.9470 c3       379 PS       0.031000
   6050 C1        -32.4340    8.1280    6.1570 c3       379 PS       0.000400
   6051 CG        -32.0940    9.4980    6.8770 ca       379 PS       0.250900
   6052 CD1       -33.1240   10.2580    7.4970 ca       379 PS      -0.270200
   6053 CE1       -32.8140   11.5480    7.9870 ca       379 PS      -0.050500
   6054 CZ        -31.4540   11.9780    7.9670 ca       379 PS      -0.188800
   6055 CE2       -30.4840   11.1880    7.3470 ca       379 PS      -0.050500
   6056 CD2       -30.8140   10.0080    6.7470 ca       379 PS      -0.270200
   6057 H21       -34.4140    7.7380    6.9970 hc       379 PS      -0.016200
   6058 H22       -33.1440    7.1580    8.0070 hc       379 PS      -0.016200
   6059 H1        -31.5140    7.5480    6.2970 hc       379 PS      -0.005300
   6060 HD1       -34.1440    9.9080    7.6270 ha       379 PS       0.124600
   6061 HE1       -33.5740   12.1680    8.4570 ha       379 PS       0.105800
   6062 HZ        -31.0940   12.8580    8.4970 ha       379 PS       0.124800
   6063 HE2       -29.4840   11.6280    7.2870 ha       379 PS       0.105800
   6064 HD2       -30.0240    9.4680    6.2270 ha       379 PS       0.124600
   6065 C2        -32.7040    8.2680    4.6170 c3       380 PS       0.031000
   6066 C1        -34.0140    9.0480    4.2170 c3       380 PS       0.000400
   6067 CG        -33.5340   10.1780    3.2970 ca       380 PS       0.250900
   6068 CD1       -33.2040   10.0280    1.9570 ca       380 PS      -0.270200
   6069 CE1       -32.8840   11.0680    1.1470 ca       380 PS      -0.050500
   6070 CZ        -32.8540   12.3880    1.7270 ca       380 PS      -0.188800
   6071 CE2       -33.0040   12.5380    3.1370 ca       380 PS      -0.050500
   6072 CD2       -33.5140   11.4480    3.9470 ca       380 PS      -0.270200
   6073 H21       -31.8140    8.7680    4.2070 hc       380 PS      -0.016200
   6074 H22       -32.6840    7.2980    4.1170 hc       380 PS      -0.016200
   6075 H1        -34.5140    9.4180    5.1170 hc       380 PS      -0.005300
   6076 HD1       -33.2340    9.0580    1.4870 ha       380 PS       0.124600
   6077 HE1       -32.7540   10.9180    0.0770 ha       380 PS       0.105800
   6078 HZ        -32.6840   13.2880    1.1370 ha       380 PS       0.124800
   6079 HE2       -32.8240   13.5180    3.5770 ha       380 PS       0.105800
   6080 HD2       -33.7140   11.6180    4.9970 ha       380 PS       0.124600
   6081 C2        -35.1140    8.1280    3.5670 c3       381 PS       0.031000
   6082 C1        -36.5140    8.5180    4.0570 c3       381 PS       0.000400
   6083 CG        -37.4940    7.3780    3.8370 ca       381 PS       0.250900
   6084 CD1       -37.7540    6.5080    4.8770 ca       381 PS      -0.270200
   6085 CE1       -38.6440    5.4280    4.6170 ca       381 PS      -0.050500
   6086 CZ        -39.1540    5.1580    3.3070 ca       381 PS      -0.188800
   6087 CE2       -38.9140    6.0980    2.2570 ca       381 PS      -0.050500
   6088 CD2       -38.1240    7.1980    2.5770 ca       381 PS      -0.270200
   6089 H21       -35.0740    8.0480    2.4670 hc       381 PS      -0.016200
   6090 H22       -34.9140    7.0980    3.8770 hc       381 PS      -0.016200
   6091 H1        -36.4540    8.6680    5.1370 hc       381 PS      -0.005300
   6092 HD1       -37.2540    6.6280    5.8370 ha       381 PS       0.124600
   6093 HE1       -38.8840    4.7480    5.4270 ha       381 PS       0.105800
   6094 HZ        -39.8040    4.3180    3.1170 ha       381 PS       0.124800
   6095 HE2       -39.3240    5.9780    1.2570 ha       381 PS       0.105800
   6096 HD2       -37.9940    7.9380    1.7970 ha       381 PS       0.124600
   6097 C2        -37.0240    9.8980    3.5170 c3       382 PS       0.031000
   6098 C1        -38.4540   10.1480    4.0370 c3       382 PS       0.000400
   6099 CG        -38.5040   11.1680    5.2170 ca       382 PS       0.250900
   6100 CD1       -39.0840   10.8280    6.4470 ca       382 PS      -0.270200
   6101 CE1       -39.1840   11.7580    7.4770 ca       382 PS      -0.050500
   6102 CZ        -38.7540   13.0980    7.2570 ca       382 PS      -0.188800
   6103 CE2       -38.1540   13.4280    6.0470 ca       382 PS      -0.050500
   6104 CD2       -38.0340   12.4880    5.0670 ca       382 PS      -0.270200
   6105 H21       -36.2940   10.6680    3.7970 hc       382 PS      -0.016200
   6106 H22       -36.9740    9.8080    2.4270 hc       382 PS      -0.016200
   6107 H1        -38.9140    9.2080    4.3970 hc       382 PS      -0.005300
   6108 HD1       -39.4240    9.8080    6.6270 ha       382 PS       0.124600
   6109 HE1       -39.5140   11.5380    8.4770 ha       382 PS       0.105800
   6110 HZ        -38.8940   13.8880    7.9870 ha       382 PS       0.124800
   6111 HE2       -37.8140   14.4180    5.7670 ha       382 PS       0.105800
   6112 HD2       -37.5540   12.8180    4.1570 ha       382 PS       0.124600
   6113 C2         40.7060   10.5580    2.8170 c3       383 PS       0.031000
   6114 C1         39.2260   10.9680    3.0870 c3       383 PS       0.000400
   6115 CG         38.4160    9.8480    3.7170 ca       383 PS       0.250900
   6116 CD1        37.4060   10.2680    4.5770 ca       383 PS      -0.270200
   6117 CE1        36.5060    9.2680    5.1470 ca       383 PS      -0.050500
   6118 CZ         36.6560    7.8980    4.8770 ca       383 PS      -0.188800
   6119 CE2        37.7160    7.5180    4.0170 ca       383 PS      -0.050500
   6120 CD2        38.5160    8.4680    3.3770 ca       383 PS      -0.270200
   6121 H21        41.2260   11.3780    2.2970 hc       383 PS      -0.016200
   6122 H22        40.7860    9.7880    2.0470 hc       383 PS      -0.016200
   6123 H1         39.3360   11.6680    3.9270 hc       383 PS      -0.005300
   6124 HD1        37.2760   11.2980    4.8870 ha       383 PS       0.124600
   6125 HE1        35.7260    9.4880    5.8770 ha       383 PS       0.105800
   6126 HZ         36.0560    7.1680    5.4170 ha       383 PS       0.124800
   6127 HE2        37.9060    6.4580    3.8570 ha       383 PS       0.105800
   6128 HD2        39.3060    8.0780    2.7470 ha       383 PS       0.124600
   6129 C2         38.5260   11.6980    1.9070 c3       384 PS       0.031000
   6130 C1         37.9660   10.7680    0.7870 c3       384 PS       0.000400
   6131 CG         39.0660    9.9780    0.0370 ca       384 PS       0.250900
   6132 CD1        40.2060   10.5880   -0.5330 ca       384 PS      -0.270200
   6133 CE1        41.1160    9.8380   -1.3530 ca       384 PS      -0.050500
   6134 CZ         40.9960    8.3980   -1.4030 ca       384 PS      -0.188800
   6135 CE2        39.9660    7.8280   -0.6830 ca       384 PS      -0.050500
   6136 CD2        38.9660    8.5880    0.0070 ca       384 PS      -0.270200
   6137 H21        37.7160   12.3480    2.2770 hc       384 PS      -0.016200
   6138 H22        39.1760   12.4580    1.4570 hc       384 PS      -0.016200
   6139 H1         37.3060   10.0380    1.2670 hc       384 PS      -0.005300
   6140 HD1        40.2360   11.6680   -0.4930 ha       384 PS       0.124600
   6141 HE1        41.9560   10.2780   -1.8730 ha       384 PS       0.105800
   6142 HZ         41.6460    7.7680   -2.0030 ha       384 PS       0.124800
   6143 HE2        39.8260    6.7480   -0.7730 ha       384 PS       0.105800
   6144 HD2        38.1460    8.1080    0.5270 ha       384 PS       0.124600
   6145 C2         37.2460   11.5380   -0.2530 c3       385 PS       0.031000
   6146 C1         35.7760   12.0480    0.3070 c3       385 PS       0.000400
   6147 CG         34.9660   10.9680    1.1070 ca       385 PS       0.250900
   6148 CD1        34.7060   11.2580    2.5070 ca       385 PS      -0.270200
   6149 CE1        33.8160   10.3980    3.2070 ca       385 PS      -0.050500
   6150 CZ         32.9760    9.5280    2.5370 ca       385 PS      -0.188800
   6151 CE2        33.1760    9.2880    1.1170 ca       385 PS      -0.050500
   6152 CD2        34.2560    9.8880    0.4670 ca       385 PS      -0.270200
   6153 H21        37.8160   12.4380   -0.5130 hc       385 PS      -0.016200
   6154 H22        37.1660   10.8880   -1.1330 hc       385 PS      -0.016200
   6155 H1         36.0560   12.8280    1.0370 hc       385 PS      -0.005300
   6156 HD1        35.2260   12.0280    3.0670 ha       385 PS       0.124600
   6157 HE1        33.7560   10.4080    4.2970 ha       385 PS       0.105800
   6158 HZ         32.3260    8.9080    3.1570 ha       385 PS       0.124800
   6159 HE2        32.5360    8.6380    0.5270 ha       385 PS       0.105800
   6160 HD2        34.6260    9.5980   -0.5130 ha       385 PS       0.124600
   6161 C2         34.9760   12.7180   -0.7930 c3       386 PS       0.031000
   6162 C1         33.7060   13.5180   -0.2730 c3       386 PS       0.000400
   6163 CG         32.4060   12.8680   -0.7130 ca       386 PS       0.250900
   6164 CD1        31.4160   12.3380    0.2370 ca       386 PS      -0.270200
   6165 CE1        30.2960   11.6480   -0.1930 ca       386 PS      -0.050500
   6166 CZ         30.1860   11.2280   -1.5330 ca       386 PS      -0.188800
   6167 CE2        31.1960   11.5680   -2.4230 ca       386 PS      -0.050500
   6168 CD2        32.2660   12.4580   -2.0530 ca       386 PS      -0.270200
   6169 H21        35.5560   13.3980   -1.4430 hc       386 PS      -0.016200
   6170 H22        34.6760   11.9280   -1.4830 hc       386 PS      -0.016200
   6171 H1         33.6260   13.4680    0.8170 hc       386 PS      -0.005300
   6172 HD1        31.5260   12.4880    1.3070 ha       386 PS       0.124600
   6173 HE1        29.4960   11.4280    0.5070 ha       386 PS       0.105800
   6174 HZ         29.3760   10.5680   -1.8230 ha       386 PS       0.124800
   6175 HE2        31.1760   11.2080   -3.4430 ha       386 PS       0.105800
   6176 HD2        33.0260   12.6680   -2.8030 ha       386 PS       0.124600
   6177 C2         33.8260   15.1180   -0.5730 c3       387 PS       0.031000
   6178 C1         33.3960   16.0480    0.6270 c3       387 PS       0.000400
   6179 CG         33.7360   15.6180    2.1170 ca       387 PS       0.250900
   6180 CD1        32.7960   15.5480    3.1470 ca       387 PS      -0.270200
   6181 CE1        33.0460   15.0080    4.4470 ca       387 PS      -0.050500
   6182 CZ         34.3460   14.6180    4.7770 ca       387 PS      -0.188800
   6183 CE2        35.3360   14.7780    3.7870 ca       387 PS      -0.050500
   6184 CD2        35.0160   15.2380    2.5070 ca       387 PS      -0.270200
   6185 H21        34.8460   15.4580   -0.7930 hc       387 PS      -0.016200
   6186 H22        33.2360   15.4180   -1.4430 hc       387 PS      -0.016200
   6187 H1         32.3160   16.1680    0.4470 hc       387 PS      -0.005300
   6188 HD1        31.7560   15.6880    2.8570 ha       387 PS       0.124600
   6189 HE1        32.2560   14.6580    5.1070 ha       387 PS       0.105800
   6190 HZ         34.5960   14.0980    5.6970 ha       387 PS       0.124800
   6191 HE2        36.3260   14.4280    4.0570 ha       387 PS       0.105800
   6192 HD2        35.7660   15.3080    1.7270 ha       387 PS       0.124600
   6193 C2         34.1460   17.3980    0.3070 c3       388 PS       0.031000
   6194 C1         33.6060   18.2780   -0.8630 c3       388 PS       0.000400
   6195 CG         32.2060   18.8180   -0.5230 ca       388 PS       0.250900
   6196 CD1        32.0260   20.1180    0.0070 ca       388 PS      -0.270200
   6197 CE1        30.7860   20.6280    0.2570 ca       388 PS      -0.050500
   6198 CZ         29.6860   19.8380   -0.0030 ca       388 PS      -0.188800
   6199 CE2        29.8160   18.5180   -0.5630 ca       388 PS      -0.050500
   6200 CD2        31.1160   18.0580   -0.8030 ca       388 PS      -0.270200
   6201 H21        34.0960   17.9680    1.2470 hc       388 PS      -0.016200
   6202 H22        35.2060   17.2580    0.0770 hc       388 PS      -0.016200
   6203 H1         33.4160   17.5780   -1.6930 hc       388 PS      -0.005300
   6204 HD1        32.8260   20.8180    0.2370 ha       388 PS       0.124600
   6205 HE1        30.7560   21.6780    0.4970 ha       388 PS       0.105800
   6206 HZ         28.6860   20.2480    0.1470 ha       388 PS       0.124800
   6207 HE2        28.9660   17.8680   -0.7530 ha       388 PS       0.105800
   6208 HD2        31.2260   17.0880   -1.2830 ha       388 PS       0.124600
   6209 C2         34.6860   19.3680   -1.3130 c3       389 PS       0.031000
   6210 C1         35.5560   20.0380   -0.2130 c3       389 PS       0.000400
   6211 CG         36.7160   19.1680    0.2970 ca       389 PS       0.250900
   6212 CD1        37.7760   18.7780   -0.5930 ca       389 PS      -0.270200
   6213 CE1        38.7660   17.8380   -0.2130 ca       389 PS      -0.050500
   6214 CZ         38.7360   17.1780    0.9870 ca       389 PS      -0.188800
   6215 CE2        37.6960   17.5180    1.8970 ca       389 PS      -0.050500
   6216 CD2        36.7260   18.5680    1.5870 ca       389 PS      -0.270200
   6217 H21        35.3060   18.8580   -2.0630 hc       389 PS      -0.016200
   6218 H22        34.3060   20.1980   -1.9230 hc       389 PS      -0.016200
   6219 H1         34.9160   20.1680    0.6670 hc       389 PS      -0.005300
   6220 HD1        37.8560   19.2480   -1.5630 ha       389 PS       0.124600
   6221 HE1        39.6460   17.6280   -0.8330 ha       389 PS       0.105800
   6222 HZ         39.4860   16.4380    1.2470 ha       389 PS       0.124800
   6223 HE2        37.6660   17.0980    2.8970 ha       389 PS       0.105800
   6224 HD2        35.9660   18.7780    2.3370 ha       389 PS       0.124600
   6225 C2         36.0460   21.4480   -0.7030 c3       390 PS       0.031000
   6226 C1         36.4860   22.2380    0.5170 c3       390 PS       0.000400
   6227 CG         37.1960   23.5580    0.2370 ca       390 PS       0.250900
   6228 CD1        38.3860   23.6780   -0.5430 ca       390 PS      -0.270200
   6229 CE1        38.9960   24.9180   -0.8130 ca       390 PS      -0.050500
   6230 CZ         38.3360   26.1180   -0.4030 ca       390 PS      -0.188800
   6231 CE2        37.2560   25.9880    0.5370 ca       390 PS      -0.050500
   6232 CD2        36.7460   24.7180    0.8570 ca       390 PS      -0.270200
   6233 H21        36.7660   21.2380   -1.5130 hc       390 PS      -0.016200
   6234 H22        35.2060   22.0180   -1.1230 hc       390 PS      -0.016200
   6235 H1         35.5860   22.4980    1.0870 hc       390 PS      -0.005300
   6236 HD1        38.8160   22.7380   -0.9030 ha       390 PS       0.124600
   6237 HE1        39.8660   24.9980   -1.4630 ha       390 PS       0.105800
   6238 HZ         38.7060   27.1180   -0.6230 ha       390 PS       0.124800
   6239 HE2        36.8460   26.7780    1.1570 ha       390 PS       0.105800
   6240 HD2        36.0160   24.6180    1.6470 ha       390 PS       0.124600
   6241 C2         39.1460   -0.9820    8.0670 c3       391 PS       0.031000
   6242 C1         38.2060   -1.1420    6.8570 c3       391 PS       0.000400
   6243 CG         36.7760   -0.9520    7.3670 ca       391 PS       0.250900
   6244 CD1        35.9760   -2.1620    7.5070 ca       391 PS      -0.270200
   6245 CE1        34.6560   -2.1020    7.8670 ca       391 PS      -0.050500
   6246 CZ         34.0660   -0.8320    7.9970 ca       391 PS      -0.188800
   6247 CE2        34.7660    0.3180    7.7970 ca       391 PS      -0.050500
   6248 CD2        36.1460    0.3280    7.5870 ca       391 PS      -0.270200
   6249 H21        40.1760   -1.1320    7.7270 hc       391 PS      -0.016200
   6250 H22        39.0660    0.0480    8.4370 hc       391 PS      -0.016200
   6251 H1         38.3260   -2.1920    6.5570 hc       391 PS      -0.005300
   6252 HD1        36.4560   -3.1320    7.5570 ha       391 PS       0.124600
   6253 HE1        34.0760   -3.0120    7.8670 ha       391 PS       0.105800
   6254 HZ         33.0060   -0.6620    8.1570 ha       391 PS       0.124800
   6255 HE2        34.2960    1.2880    7.9170 ha       391 PS       0.105800
   6256 HD2        36.6560    1.2180    7.2270 ha       391 PS       0.124600
   6257 C2         38.5660   -0.2520    5.5770 c3       392 PS       0.031000
   6258 C1         38.0860   -0.6920    4.1570 c3       392 PS       0.000400
   6259 CG         36.5860   -0.7520    4.0670 ca       392 PS       0.250900
   6260 CD1        35.9560   -1.9820    3.9470 ca       392 PS      -0.270200
   6261 CE1        34.5460   -2.0820    4.0170 ca       392 PS      -0.050500
   6262 CZ         33.7760   -0.9120    3.9970 ca       392 PS      -0.188800
   6263 CE2        34.4660    0.3280    4.1470 ca       392 PS      -0.050500
   6264 CD2        35.8760    0.4580    4.1270 ca       392 PS      -0.270200
   6265 H21        38.1560    0.7280    5.8470 hc       392 PS      -0.016200
   6266 H22        39.6660   -0.2320    5.5570 hc       392 PS      -0.016200
   6267 H1         38.5460   -1.6620    3.9370 hc       392 PS      -0.005300
   6268 HD1        36.5660   -2.8720    4.0070 ha       392 PS       0.124600
   6269 HE1        34.1360   -3.0920    3.9970 ha       392 PS       0.105800
   6270 HZ         32.7060   -0.9320    4.1770 ha       392 PS       0.124800
   6271 HE2        33.8760    1.2480    4.1370 ha       392 PS       0.105800
   6272 HD2        36.3960    1.4080    4.1670 ha       392 PS       0.124600
   6273 C2         38.6360    0.2780    3.0970 c3       393 PS       0.031000
   6274 C1         38.4660   -0.1420    1.5670 c3       393 PS       0.000400
   6275 CG         38.2060    1.1080    0.6770 ca       393 PS       0.250900
   6276 CD1        36.8960    1.5980    0.4770 ca       393 PS      -0.270200
   6277 CE1        36.5960    2.7880   -0.1730 ca       393 PS      -0.050500
   6278 CZ         37.6260    3.5080   -0.8230 ca       393 PS      -0.188800
   6279 CE2        38.9360    3.0480   -0.7130 ca       393 PS      -0.050500
   6280 CD2        39.2460    1.8680    0.0570 ca       393 PS      -0.270200
   6281 H21        38.2360    1.2780    3.3070 hc       393 PS      -0.016200
   6282 H22        39.7160    0.2980    3.2870 hc       393 PS      -0.016200
   6283 H1         37.6660   -0.8820    1.4870 hc       393 PS      -0.005300
   6284 HD1        36.1160    0.9680    0.8770 ha       393 PS       0.124600
   6285 HE1        35.5960    3.1880   -0.3030 ha       393 PS       0.105800
   6286 HZ         37.4660    4.4780   -1.2830 ha       393 PS       0.124800
   6287 HE2        39.6960    3.6780   -1.1630 ha       393 PS       0.105800
   6288 HD2        40.2560    1.4780    0.1070 ha       393 PS       0.124600
   6289 C2         39.6560   -1.0520    1.1770 c3       394 PS       0.031000
   6290 C1         39.4460   -2.1420   -0.0030 c3       394 PS       0.000400
   6291 CG         38.1960   -2.9120    0.2370 ca       394 PS       0.250900
   6292 CD1        38.1360   -3.7920    1.3170 ca       394 PS      -0.270200
   6293 CE1        36.9260   -4.5220    1.4970 ca       394 PS      -0.050500
   6294 CZ         35.8460   -4.3620    0.6670 ca       394 PS      -0.188800
   6295 CE2        35.9160   -3.4220   -0.4030 ca       394 PS      -0.050500
   6296 CD2        37.0860   -2.6320   -0.5730 ca       394 PS      -0.270200
   6297 H21        40.5660   -0.4820    0.9370 hc       394 PS      -0.016200
   6298 H22        39.8860   -1.7620    1.9770 hc       394 PS      -0.016200
   6299 H1         39.4160   -1.6920   -0.9930 hc       394 PS      -0.005300
   6300 HD1        39.0360   -4.0520    1.8670 ha       394 PS       0.124600
   6301 HE1        36.8060   -5.2620    2.2870 ha       394 PS       0.105800
   6302 HZ         34.9160   -4.9020    0.8570 ha       394 PS       0.124800
   6303 HE2        35.0660   -3.3620   -1.0730 ha       394 PS       0.105800
   6304 HD2        37.0760   -1.8820   -1.3530 ha       394 PS       0.124600
   6305 C2        -39.2540   -3.0020   -0.2230 c3       395 PS       0.031000
   6306 C1        -39.2540   -4.0320   -1.3930 c3       395 PS       0.000400
   6307 CG        -38.8540   -3.5220   -2.7930 ca       395 PS       0.250900
   6308 CD1       -38.4240   -2.2220   -2.9730 ca       395 PS      -0.270200
   6309 CE1       -38.1640   -1.7420   -4.2330 ca       395 PS      -0.050500
   6310 CZ        -38.0140   -2.6320   -5.3030 ca       395 PS      -0.188800
   6311 CE2       -38.4740   -3.9320   -5.1530 ca       395 PS      -0.050500
   6312 CD2       -38.8340   -4.3820   -3.8930 ca       395 PS      -0.270200
   6313 H21       -38.4340   -2.2720   -0.2630 hc       395 PS      -0.016200
   6314 H22       -39.1040   -3.4520    0.7670 hc       395 PS      -0.016200
   6315 H1        -40.2840   -4.4020   -1.4830 hc       395 PS      -0.005300
   6316 HD1       -38.2140   -1.5620   -2.1430 ha       395 PS       0.124600
   6317 HE1       -38.0140   -0.6720   -4.3230 ha       395 PS       0.105800
   6318 HZ        -37.7240   -2.2320   -6.2630 ha       395 PS       0.124800
   6319 HE2       -38.6040   -4.5120   -6.0630 ha       395 PS       0.105800
   6320 HD2       -39.1740   -5.4120   -3.8530 ha       395 PS       0.124600
   6321 C2        -38.4140   -5.2320   -0.9230 c3       396 PS       0.031000
   6322 C1        -39.1540   -6.3420   -0.2330 c3       396 PS       0.000400
   6323 CG        -39.8040   -7.3120   -1.2230 ca       396 PS       0.250900
   6324 CD1       -41.1440   -7.1620   -1.5830 ca       396 PS      -0.270200
   6325 CE1       -41.7440   -8.0520   -2.4830 ca       396 PS      -0.050500
   6326 CZ        -41.0440   -9.0720   -3.1730 ca       396 PS      -0.188800
   6327 CE2       -39.6840   -9.2020   -2.8330 ca       396 PS      -0.050500
   6328 CD2       -39.0740   -8.3220   -1.9730 ca       396 PS      -0.270200
   6329 H21       -37.9440   -5.6220   -1.8330 hc       396 PS      -0.016200
   6330 H22       -37.5540   -4.9620   -0.2830 hc       396 PS      -0.016200
   6331 H1        -40.0040   -5.8220    0.2070 hc       396 PS      -0.005300
   6332 HD1       -41.7840   -6.4120   -1.1330 ha       396 PS       0.124600
   6333 HE1       -42.7740   -7.8520   -2.7730 ha       396 PS       0.105800
   6334 HZ        -41.4740   -9.7320   -3.9130 ha       396 PS       0.124800
   6335 HE2       -39.0740   -9.8820   -3.4230 ha       396 PS       0.105800
   6336 HD2       -38.0140   -8.4120   -1.7630 ha       396 PS       0.124600
   6337 C2        -38.2840   -7.0720    0.8470 c3       397 PS       0.031000
   6338 C1        -39.1340   -7.7920    1.9570 c3       397 PS       0.000400
   6339 CG        -39.8140   -9.0020    1.3870 ca       397 PS       0.250900
   6340 CD1       -41.2140   -9.1420    1.3070 ca       397 PS      -0.270200
   6341 CE1       -41.7740  -10.3120    0.7870 ca       397 PS      -0.050500
   6342 CZ        -40.9340  -11.4120    0.3970 ca       397 PS      -0.188800
   6343 CE2       -39.5640  -11.2820    0.4870 ca       397 PS      -0.050500
   6344 CD2       -39.0140  -10.0520    0.8570 ca       397 PS      -0.270200
   6345 H21       -37.6040   -7.7020    0.2470 hc       397 PS      -0.016200
   6346 H22       -37.6940   -6.3520    1.4170 hc       397 PS      -0.016200
   6347 H1        -39.8440   -7.0120    2.2870 hc       397 PS      -0.005300
   6348 HD1       -41.8640   -8.3320    1.6070 ha       397 PS       0.124600
   6349 HE1       -42.8540  -10.4720    0.7870 ha       397 PS       0.105800
   6350 HZ        -41.4240  -12.3520    0.1370 ha       397 PS       0.124800
   6351 HE2       -38.8540  -12.0720    0.2970 ha       397 PS       0.105800
   6352 HD2       -37.9440   -9.9920    1.0470 ha       397 PS       0.124600
   6353 C2        -38.3640   -8.0920    3.2970 c3       398 PS       0.031000
   6354 C1        -39.3040   -8.3120    4.4870 c3       398 PS       0.000400
   6355 CG        -39.2240   -7.0620    5.3070 ca       398 PS       0.250900
   6356 CD1       -40.1740   -6.0720    5.1370 ca       398 PS      -0.270200
   6357 CE1       -40.1740   -4.9220    5.9470 ca       398 PS      -0.050500
   6358 CZ        -39.1840   -4.7520    6.9270 ca       398 PS      -0.188800
   6359 CE2       -38.1940   -5.7320    7.1170 ca       398 PS      -0.050500
   6360 CD2       -38.2140   -6.7920    6.2070 ca       398 PS      -0.270200
   6361 H21       -37.7140   -8.9720    3.1770 hc       398 PS      -0.016200
   6362 H22       -37.5640   -7.3720    3.5270 hc       398 PS      -0.016200
   6363 H1        -40.3140   -8.4220    4.0670 hc       398 PS      -0.005300
   6364 HD1       -40.9740   -6.1420    4.4070 ha       398 PS       0.124600
   6365 HE1       -41.0540   -4.3020    5.8070 ha       398 PS       0.105800
   6366 HZ        -39.1940   -3.8920    7.5770 ha       398 PS       0.124800
   6367 HE2       -37.5140   -5.6420    7.9570 ha       398 PS       0.105800
   6368 HD2       -37.3740   -7.4620    6.2970 ha       398 PS       0.124600
   6369 C2        -39.1540   -9.6520    5.2570 c3       399 PS       0.031000
   6370 C1        -39.4240  -11.0620    4.6070 c3       399 PS       0.000400
   6371 CG        -39.0840  -12.2820    5.4570 ca       399 PS       0.250900
   6372 CD1       -38.4540  -13.3620    4.9070 ca       399 PS      -0.270200
   6373 CE1       -38.2140  -14.5220    5.7070 ca       399 PS      -0.050500
   6374 CZ        -38.7940  -14.6920    6.9270 ca       399 PS      -0.188800
   6375 CE2       -39.4540  -13.5720    7.5070 ca       399 PS      -0.050500
   6376 CD2       -39.4840  -12.3520    6.8070 ca       399 PS      -0.270200
   6377 H21       -38.2040   -9.7720    5.7770 hc       399 PS      -0.016200
   6378 H22       -39.8340   -9.5320    6.1070 hc       399 PS      -0.016200
   6379 H1        -38.8040  -11.1020    3.7070 hc       399 PS      -0.005300
   6380 HD1       -38.1040  -13.3720    3.8770 ha       399 PS       0.124600
   6381 HE1       -37.6540  -15.3320    5.2470 ha       399 PS       0.105800
   6382 HZ        -38.7640  -15.6320    7.4770 ha       399 PS       0.124800
   6383 HE2       -39.7740  -13.7720    8.5270 ha       399 PS       0.105800
   6384 HD2       -39.9940  -11.5720    7.3670 ha       399 PS       0.124600
   6385 C2         39.1460  -11.1720    3.9370 c3       400 PS       0.031000
   6386 C1         37.8360  -11.3420    4.8370 c3       400 PS       0.000400
   6387 CG         37.4660   -9.9220    5.4070 ca       400 PS       0.250900
   6388 CD1        37.4960   -9.7920    6.7870 ca       400 PS      -0.270200
   6389 CE1        37.1960   -8.5720    7.3870 ca       400 PS      -0.050500
   6390 CZ         36.9860   -7.3920    6.6770 ca       400 PS      -0.188800
   6391 CE2        36.8660   -7.5020    5.2970 ca       400 PS      -0.050500
   6392 CD2        37.1160   -8.7320    4.6370 ca       400 PS      -0.270200
   6393 H21        38.9760  -10.3420    3.2370 hc       400 PS      -0.016200
   6394 H22        39.1560  -11.9820    3.1970 hc       400 PS      -0.016200
   6395 H1         38.1360  -11.9420    5.6970 hc       400 PS      -0.005300
   6396 HD1        37.5560  -10.6520    7.4470 ha       400 PS       0.124600
   6397 HE1        37.1560   -8.4920    8.4670 ha       400 PS       0.105800
   6398 HZ         36.6760   -6.4320    7.0770 ha       400 PS       0.124800
   6399 HE2        36.6060   -6.6420    4.6770 ha       400 PS       0.105800
   6400 HD2        37.0360   -8.8220    3.5570 ha       400 PS       0.124600
   6401 C2         36.7160  -11.9920    4.0070 c3       401 PS       0.031000
   6402 C1         35.4260  -12.3520    4.7870 c3       401 PS       0.000400
   6403 CG         35.5760  -13.8220    5.2970 ca       401 PS       0.250900
   6404 CD1        35.1360  -14.8720    4.4570 ca       401 PS      -0.270200
   6405 CE1        35.2060  -16.2220    4.8770 ca       401 PS      -0.050500
   6406 CZ         35.9360  -16.5320    5.9970 ca       401 PS      -0.188800
   6407 CE2        36.3960  -15.5120    6.8970 ca       401 PS      -0.050500
   6408 CD2        36.2260  -14.1420    6.5370 ca       401 PS      -0.270200
   6409 H21        36.6060  -11.3320    3.1370 hc       401 PS      -0.016200
   6410 H22        37.1660  -12.8520    3.4870 hc       401 PS      -0.016200
   6411 H1         35.2660  -11.6620    5.6170 hc       401 PS      -0.005300
   6412 HD1        34.6860  -14.7720    3.4770 ha       401 PS       0.124600
   6413 HE1        34.6960  -17.0320    4.3770 ha       401 PS       0.105800
   6414 HZ         36.0160  -17.5820    6.2670 ha       401 PS       0.124800
   6415 HE2        36.8360  -15.7820    7.8570 ha       401 PS       0.105800
   6416 HD2        36.6060  -13.3720    7.2070 ha       401 PS       0.124600
   6417 C2         34.1960  -12.2120    3.8870 c3       402 PS       0.031000
   6418 C1         33.7760  -10.6720    3.8870 c3       402 PS       0.000400
   6419 CG         33.1460  -10.3420    5.2570 ca       402 PS       0.250900
   6420 CD1        31.9260  -10.9620    5.5570 ca       402 PS      -0.270200
   6421 CE1        31.3160  -10.8420    6.7970 ca       402 PS      -0.050500
   6422 CZ         31.9060  -10.0120    7.7670 ca       402 PS      -0.188800
   6423 CE2        33.1260   -9.4120    7.5370 ca       402 PS      -0.050500
   6424 CD2        33.6960   -9.5120    6.2670 ca       402 PS      -0.270200
   6425 H21        34.3960  -12.4620    2.8370 hc       402 PS      -0.016200
   6426 H22        33.4460  -12.8220    4.4070 hc       402 PS      -0.016200
   6427 H1         34.7060  -10.0820    3.8870 hc       402 PS      -0.005300
   6428 HD1        31.5060  -11.5820    4.7670 ha       402 PS       0.124600
   6429 HE1        30.4160  -11.4020    7.0370 ha       402 PS       0.105800
   6430 HZ         31.4460   -9.9320    8.7470 ha       402 PS       0.124800
   6431 HE2        33.7360   -9.0420    8.3570 ha       402 PS       0.105800
   6432 HD2        34.6460   -9.0620    6.0070 ha       402 PS       0.124600
   6433 C2         32.9660  -10.2220    2.6770 c3       403 PS       0.031000
   6434 C1         32.8460   -8.6520    2.6470 c3       403 PS       0.000400
   6435 CG         33.4660   -8.0920    1.4370 ca       403 PS       0.250900
   6436 CD1        34.9160   -8.0920    1.3870 ca       403 PS      -0.270200
   6437 CE1        35.5260   -7.6020    0.1970 ca       403 PS      -0.050500
   6438 CZ         34.7060   -7.2720   -0.8730 ca       403 PS      -0.188800
   6439 CE2        33.3060   -7.2220   -0.8130 ca       403 PS      -0.050500
   6440 CD2        32.6660   -7.6120    0.3370 ca       403 PS      -0.270200
   6441 H21        33.5860  -10.5420    1.8270 hc       403 PS      -0.016200
   6442 H22        32.0160  -10.7620    2.5970 hc       403 PS      -0.016200
   6443 H1         33.5260   -8.3620    3.4570 hc       403 PS      -0.005300
   6444 HD1        35.4960   -8.3820    2.2570 ha       403 PS       0.124600
   6445 HE1        36.5660   -7.3020    0.2270 ha       403 PS       0.105800
   6446 HZ         35.1160   -6.8520   -1.7930 ha       403 PS       0.124800
   6447 HE2        32.7260   -7.0420   -1.7130 ha       403 PS       0.105800
   6448 HD2        31.5960   -7.7420    0.2770 ha       403 PS       0.124600
   6449 C2         31.4860   -8.0420    3.1770 c3       404 PS       0.031000
   6450 C1         31.4160   -6.5520    3.4770 c3       404 PS       0.000400
   6451 CG         32.0260   -6.3620    4.8570 ca       404 PS       0.250900
   6452 CD1        33.1460   -5.4420    4.8470 ca       404 PS      -0.270200
   6453 CE1        33.7460   -5.0420    6.0370 ca       404 PS      -0.050500
   6454 CZ         33.2760   -5.4120    7.2370 ca       404 PS      -0.188800
   6455 CE2        32.1960   -6.3520    7.2770 ca       404 PS      -0.050500
   6456 CD2        31.5960   -6.8320    6.0670 ca       404 PS      -0.270200
   6457 H21        30.7760   -8.2020    2.3570 hc       404 PS      -0.016200
   6458 H22        31.0860   -8.6420    4.0070 hc       404 PS      -0.016200
   6459 H1         31.8860   -6.0120    2.6470 hc       404 PS      -0.005300
   6460 HD1        33.3760   -4.9420    3.9070 ha       404 PS       0.124600
   6461 HE1        34.6360   -4.4220    6.0370 ha       404 PS       0.105800
   6462 HZ         33.7460   -5.0420    8.1370 ha       404 PS       0.124800
   6463 HE2        31.8560   -6.6320    8.2670 ha       404 PS       0.105800
   6464 HD2        30.8260   -7.5820    6.1770 ha       404 PS       0.124600
   6465 C2         29.9260   -6.0820    3.4070 c3       405 PS       0.031000
   6466 C1         29.5660   -4.5820    3.4970 c3       405 PS       0.000400
   6467 CG         29.9160   -4.0320    4.9270 ca       405 PS       0.250900
   6468 CD1        30.7960   -3.0420    5.0070 ca       405 PS      -0.270200
   6469 CE1        31.2260   -2.4320    6.2070 ca       405 PS      -0.050500
   6470 CZ         30.5060   -2.7920    7.3970 ca       405 PS      -0.188800
   6471 CE2        29.5960   -3.8420    7.3470 ca       405 PS      -0.050500
   6472 CD2        29.2860   -4.4820    6.0970 ca       405 PS      -0.270200
   6473 H21        29.4860   -6.4320    2.4570 hc       405 PS      -0.016200
   6474 H22        29.3760   -6.6120    4.1870 hc       405 PS      -0.016200
   6475 H1         30.1160   -4.0320    2.7170 hc       405 PS      -0.005300
   6476 HD1        31.2260   -2.7320    4.0570 ha       405 PS       0.124600
   6477 HE1        32.0460   -1.7120    6.2070 ha       405 PS       0.105800
   6478 HZ         30.6360   -2.4020    8.3970 ha       405 PS       0.124800
   6479 HE2        29.0860   -4.3020    8.1870 ha       405 PS       0.105800
   6480 HD2        28.5960   -5.3220    6.1070 ha       405 PS       0.124600
   6481 C2         28.1260   -4.3820    3.1470 c3       406 PS       0.031000
   6482 C1         27.5860   -2.9720    3.3970 c3       406 PS       0.000400
   6483 CG         26.1360   -2.9420    3.0370 ca       406 PS       0.250900
   6484 CD1        25.1060   -2.7620    4.0470 ca       406 PS      -0.270200
   6485 CE1        23.7860   -2.7820    3.6270 ca       406 PS      -0.050500
   6486 CZ         23.4060   -3.0220    2.3170 ca       406 PS      -0.188800
   6487 CE2        24.3960   -3.2320    1.3570 ca       406 PS      -0.050500
   6488 CD2        25.7760   -3.1720    1.7270 ca       406 PS      -0.270200
   6489 H21        27.9760   -4.6920    2.1070 hc       406 PS      -0.016200
   6490 H22        27.5660   -5.1120    3.7370 hc       406 PS      -0.016200
   6491 H1         27.6160   -2.9020    4.4870 hc       406 PS      -0.005300
   6492 HD1        25.3460   -2.6420    5.0970 ha       406 PS       0.124600
   6493 HE1        22.9860   -2.5020    4.3070 ha       406 PS       0.105800
   6494 HZ         22.3560   -3.0220    2.0370 ha       406 PS       0.124800
   6495 HE2        24.1960   -3.5620    0.3470 ha       406 PS       0.105800
   6496 HD2        26.4660   -3.4720    0.9470 ha       406 PS       0.124600
   6497 C2         28.3260   -1.7220    2.8370 c3       407 PS       0.031000
   6498 C1         27.9160   -0.3920    3.4870 c3       407 PS       0.000400
   6499 CG         28.9060    0.0180    4.5970 ca       407 PS       0.250900
   6500 CD1        30.0960    0.6980    4.2870 ca       407 PS      -0.270200
   6501 CE1        30.8860    1.2180    5.3470 ca       407 PS      -0.050500
   6502 CZ         30.5760    0.8780    6.6970 ca       407 PS      -0.188800
   6503 CE2        29.3860    0.1080    6.9970 ca       407 PS      -0.050500
   6504 CD2        28.5560   -0.2220    5.9170 ca       407 PS      -0.270200
   6505 H21        29.4260   -1.7920    2.8470 hc       407 PS      -0.016200
   6506 H22        28.1160   -1.5920    1.7670 hc       407 PS      -0.016200
   6507 H1         26.9360   -0.6620    3.9070 hc       407 PS      -0.005300
   6508 HD1        30.3660    0.9380    3.2670 ha       407 PS       0.124600
   6509 HE1        31.7660    1.8280    5.1470 ha       407 PS       0.105800
   6510 HZ         31.2360    1.1680    7.5070 ha       407 PS       0.124800
   6511 HE2        29.2860   -0.1720    8.0370 ha       407 PS       0.105800
   6512 HD2        27.6460   -0.7820    6.1070 ha       407 PS       0.124600
   6513 C2         27.6760    0.7080    2.4170 c3       408 PS       0.031000
   6514 C1         27.1260    2.1080    3.0270 c3       408 PS       0.000400
   6515 CG         25.8760    1.8180    3.9070 ca       408 PS       0.250900
   6516 CD1        25.8260    2.1180    5.3170 ca       408 PS      -0.270200
   6517 CE1        24.7160    1.8580    6.1070 ca       408 PS      -0.050500
   6518 CZ         23.5760    1.3280    5.4770 ca       408 PS      -0.188800
   6519 CE2        23.5960    1.0480    4.1070 ca       408 PS      -0.050500
   6520 CD2        24.7260    1.3480    3.2770 ca       408 PS      -0.270200
   6521 H21        28.6160    0.8280    1.8670 hc       408 PS      -0.016200
   6522 H22        27.0360    0.3980    1.5870 hc       408 PS      -0.016200
   6523 H1         27.8360    2.5480    3.7270 hc       408 PS      -0.005300
   6524 HD1        26.6660    2.5480    5.8570 ha       408 PS       0.124600
   6525 HE1        24.6260    2.2380    7.1270 ha       408 PS       0.105800
   6526 HZ         22.6960    1.1780    6.0970 ha       408 PS       0.124800
   6527 HE2        22.7560    0.5280    3.6570 ha       408 PS       0.105800
   6528 HD2        24.6860    1.1280    2.2070 ha       408 PS       0.124600
   6529 C2         26.8460    3.0480    1.7970 c3       409 PS       0.031000
   6530 C1         26.4260    4.4980    2.3070 c3       409 PS       0.000400
   6531 CG         25.5560    5.2280    1.3670 ca       409 PS       0.250900
   6532 CD1        26.0760    5.9880    0.3270 ca       409 PS      -0.270200
   6533 CE1        25.1860    6.8280   -0.4230 ca       409 PS      -0.050500
   6534 CZ         23.7660    6.8680   -0.1830 ca       409 PS      -0.188800
   6535 CE2        23.3160    6.1680    0.9870 ca       409 PS      -0.050500
   6536 CD2        24.2160    5.3780    1.6970 ca       409 PS      -0.270200
   6537 H21        27.6660    3.0380    1.0770 hc       409 PS      -0.016200
   6538 H22        26.0360    2.5080    1.2870 hc       409 PS      -0.016200
   6539 H1         25.9060    4.4280    3.2670 hc       409 PS      -0.005300
   6540 HD1        27.0560    5.7180   -0.0430 ha       409 PS       0.124600
   6541 HE1        25.6660    7.2180   -1.3130 ha       409 PS       0.105800
   6542 HZ         23.0760    7.4780   -0.7530 ha       409 PS       0.124800
   6543 HE2        22.2660    6.1580    1.2470 ha       409 PS       0.105800
   6544 HD2        23.8160    4.8980    2.5870 ha       409 PS       0.124600
   6545 C2         27.7860    5.2680    2.7270 c3       410 PS       0.031000
   6546 C1         27.4160    6.4380    3.6570 c3       410 PS       0.000400
   6547 CG         26.8660    6.0380    5.0470 ca       410 PS       0.250900
   6548 CD1        25.4960    6.1480    5.2170 ca       410 PS      -0.270200
   6549 CE1        24.8860    5.6580    6.3870 ca       410 PS      -0.050500
   6550 CZ         25.7260    5.2180    7.4270 ca       410 PS      -0.188800
   6551 CE2        27.0960    5.0980    7.3270 ca       410 PS      -0.050500
   6552 CD2        27.6860    5.4480    6.0970 ca       410 PS      -0.270200
   6553 H21        28.4360    4.6580    3.3570 hc       410 PS      -0.016200
   6554 H22        28.2960    5.5280    1.7970 hc       410 PS      -0.016200
   6555 H1         26.6160    6.9780    3.1370 hc       410 PS      -0.005300
   6556 HD1        24.8960    6.7080    4.4970 ha       410 PS       0.124600
   6557 HE1        23.8160    5.7480    6.5170 ha       410 PS       0.105800
   6558 HZ         25.3160    4.8780    8.3670 ha       410 PS       0.124800
   6559 HE2        27.7060    4.7880    8.1670 ha       410 PS       0.105800
   6560 HD2        28.7360    5.2380    5.9270 ha       410 PS       0.124600
   6561 C2         28.5760    7.5080    3.8070 c3       411 PS       0.031000
   6562 C1         28.0560    8.9880    4.0770 c3       411 PS       0.000400
   6563 CG         27.1960    9.4780    2.9270 ca       411 PS       0.250900
   6564 CD1        25.9660   10.0980    3.0970 ca       411 PS      -0.270200
   6565 CE1        25.1660   10.5680    2.0170 ca       411 PS      -0.050500
   6566 CZ         25.6360   10.3980    0.6870 ca       411 PS      -0.188800
   6567 CE2        26.8660    9.7880    0.4970 ca       411 PS      -0.050500
   6568 CD2        27.6260    9.3980    1.5770 ca       411 PS      -0.270200
   6569 H21        29.1560    7.1980    4.6770 hc       411 PS      -0.016200
   6570 H22        29.2760    7.5180    2.9570 hc       411 PS      -0.016200
   6571 H1         27.4860    8.9580    5.0170 hc       411 PS      -0.005300
   6572 HD1        25.6460   10.2080    4.1370 ha       411 PS       0.124600
   6573 HE1        24.2460   11.0980    2.2070 ha       411 PS       0.105800
   6574 HZ         25.0960   10.7580   -0.1830 ha       411 PS       0.124800
   6575 HE2        27.3760    9.8580   -0.4630 ha       411 PS       0.105800
   6576 HD2        28.6360    9.0580    1.3670 ha       411 PS       0.124600
   6577 C2         29.3060    9.8480    4.3470 c3       412 PS       0.031000
   6578 C1         28.9960   11.3280    4.8770 c3       412 PS       0.000400
   6579 CG         30.0860   11.8280    5.7270 ca       412 PS       0.250900
   6580 CD1        29.7660   12.4180    6.8570 ca       412 PS      -0.270200
   6581 CE1        30.6860   12.9080    7.7770 ca       412 PS      -0.050500
   6582 CZ         32.0360   12.7380    7.4570 ca       412 PS      -0.188800
   6583 CE2        32.4360   12.2380    6.1770 ca       412 PS      -0.050500
   6584 CD2        31.4360   11.7280    5.3570 ca       412 PS      -0.270200
   6585 H21        29.9360    9.3980    5.1270 hc       412 PS      -0.016200
   6586 H22        29.9360    9.9880    3.4570 hc       412 PS      -0.016200
   6587 H1         28.0060   11.2680    5.3470 hc       412 PS      -0.005300
   6588 HD1        28.7260   12.4080    7.1770 ha       412 PS       0.124600
   6589 HE1        30.3560   13.2880    8.7370 ha       412 PS       0.105800
   6590 HZ         32.7760   13.0780    8.1670 ha       412 PS       0.124800
   6591 HE2        33.4760   12.1680    5.8970 ha       412 PS       0.105800
   6592 HD2        31.6760   11.2980    4.3970 ha       412 PS       0.124600
   6593 C2         28.8260   12.3980    3.7070 c3       413 PS       0.031000
   6594 C1         28.4360   13.8480    4.0970 c3       413 PS       0.000400
   6595 CG         27.1060   13.9780    4.9170 ca       413 PS       0.250900
   6596 CD1        26.0060   13.2880    4.5070 ca       413 PS      -0.270200
   6597 CE1        24.8260   13.2380    5.2470 ca       413 PS      -0.050500
   6598 CZ         24.8260   13.7680    6.5770 ca       413 PS      -0.188800
   6599 CE2        25.9860   14.4280    7.0570 ca       413 PS      -0.050500
   6600 CD2        27.0860   14.5880    6.1870 ca       413 PS      -0.270200
   6601 H21        29.8560   12.3880    3.3170 hc       413 PS      -0.016200
   6602 H22        28.1960   12.0680    2.8770 hc       413 PS      -0.016200
   6603 H1         29.3260   14.2080    4.6470 hc       413 PS      -0.005300
   6604 HD1        26.0860   12.6880    3.6070 ha       413 PS       0.124600
   6605 HE1        23.9560   12.7480    4.8370 ha       413 PS       0.105800
   6606 HZ         24.0060   13.7480    7.2770 ha       413 PS       0.124800
   6607 HE2        25.9160   14.9480    8.0170 ha       413 PS       0.105800
   6608 HD2        27.9560   15.1480    6.5270 ha       413 PS       0.124600
   6609 C2         28.3960   14.6680    2.7570 c3       414 PS       0.031000
   6610 C1         27.7260   16.0980    2.9770 c3       414 PS       0.000400
   6611 CG         26.5360   16.2480    2.0170 ca       414 PS       0.250900
   6612 CD1        25.3260   16.8080    2.4770 ca       414 PS      -0.270200
   6613 CE1        24.2860   17.0980    1.5670 ca       414 PS      -0.050500
   6614 CZ         24.5060   16.9580    0.1570 ca       414 PS      -0.188800
   6615 CE2        25.7660   16.5480   -0.2930 ca       414 PS      -0.050500
   6616 CD2        26.7560   16.2180    0.6270 ca       414 PS      -0.270200
   6617 H21        29.3760   14.6880    2.2670 hc       414 PS      -0.016200
   6618 H22        27.7560   14.1080    2.0670 hc       414 PS      -0.016200
   6619 H1         27.3360   16.1980    3.9970 hc       414 PS      -0.005300
   6620 HD1        25.1260   16.8980    3.5370 ha       414 PS       0.124600
   6621 HE1        23.3160   17.3780    1.9570 ha       414 PS       0.105800
   6622 HZ         23.6460   17.1380   -0.4830 ha       414 PS       0.124800
   6623 HE2        25.9560   16.3480   -1.3430 ha       414 PS       0.105800
   6624 HD2        27.7360   15.8980    0.2770 ha       414 PS       0.124600
   6625 C2         28.7560   17.1980    2.6570 c3       415 PS       0.031000
   6626 C1         29.6960   17.6480    3.8370 c3       415 PS       0.000400
   6627 CG         28.8560   18.2480    5.0170 ca       415 PS       0.250900
   6628 CD1        27.6960   19.0180    4.8570 ca       415 PS      -0.270200
   6629 CE1        27.0060   19.4780    5.9570 ca       415 PS      -0.050500
   6630 CZ         27.3560   19.0080    7.2070 ca       415 PS      -0.188800
   6631 CE2        28.4060   18.0980    7.3970 ca       415 PS      -0.050500
   6632 CD2        29.2560   17.7880    6.2870 ca       415 PS      -0.270200
   6633 H21        29.3260   16.8780    1.7770 hc       415 PS      -0.016200
   6634 H22        28.2660   18.0780    2.2370 hc       415 PS      -0.016200
   6635 H1         30.2260   16.7480    4.1670 hc       415 PS      -0.005300
   6636 HD1        27.3660   19.3980    3.8970 ha       415 PS       0.124600
   6637 HE1        26.2460   20.2280    5.7370 ha       415 PS       0.105800
   6638 HZ         26.8460   19.1680    8.1470 ha       415 PS       0.124800
   6639 HE2        28.6460   17.8080    8.4170 ha       415 PS       0.105800
   6640 HD2        30.0660   17.0980    6.5170 ha       415 PS       0.124600
   6641 C2         30.7460   18.7280    3.2870 c3       416 PS       0.031000
   6642 C1         31.7860   19.2780    4.3970 c3       416 PS       0.000400
   6643 CG         31.1360   20.2180    5.4070 ca       416 PS       0.250900
   6644 CD1        31.2060   19.8580    6.7470 ca       416 PS      -0.270200
   6645 CE1        30.6360   20.7480    7.7270 ca       416 PS      -0.050500
   6646 CZ         29.9760   21.9480    7.3470 ca       416 PS      -0.188800
   6647 CE2        29.8860   22.2380    6.0070 ca       416 PS      -0.050500
   6648 CD2        30.4660   21.4580    5.0470 ca       416 PS      -0.270200
   6649 H21        31.2760   18.3280    2.4070 hc       416 PS      -0.016200
   6650 H22        30.1060   19.5580    2.9570 hc       416 PS      -0.016200
   6651 H1         32.2560   18.3880    4.8170 hc       416 PS      -0.005300
   6652 HD1        31.6560   18.9080    7.0270 ha       416 PS       0.124600
   6653 HE1        30.7060   20.4680    8.7770 ha       416 PS       0.105800
   6654 HZ         29.5460   22.6480    8.0570 ha       416 PS       0.124800
   6655 HE2        29.4260   23.1780    5.6870 ha       416 PS       0.105800
   6656 HD2        30.4060   21.7180    3.9970 ha       416 PS       0.124600
   6657 C2         33.0360   19.9880    3.6570 c3       417 PS       0.031000
   6658 C1         34.0560   20.6480    4.6570 c3       417 PS       0.000400
   6659 CG         34.5060   19.6880    5.6670 ca       417 PS       0.250900
   6660 CD1        34.1760   20.0280    7.0070 ca       417 PS      -0.270200
   6661 CE1        34.4760   19.0580    8.0070 ca       417 PS      -0.050500
   6662 CZ         35.1060   17.8680    7.7070 ca       417 PS      -0.188800
   6663 CE2        35.5760   17.6280    6.3670 ca       417 PS      -0.050500
   6664 CD2        35.2860   18.5580    5.3370 ca       417 PS      -0.270200
   6665 H21        33.5760   19.2980    2.9970 hc       417 PS      -0.016200
   6666 H22        32.6860   20.7280    2.9270 hc       417 PS      -0.016200
   6667 H1         33.4660   21.4680    5.0770 hc       417 PS      -0.005300
   6668 HD1        33.6260   20.9380    7.2570 ha       417 PS       0.124600
   6669 HE1        34.1660   19.2680    9.0170 ha       417 PS       0.105800
   6670 HZ         35.3160   17.2880    8.5970 ha       417 PS       0.124800
   6671 HE2        36.1960   16.7580    6.2070 ha       417 PS       0.105800
   6672 HD2        35.6360   18.2880    4.3370 ha       417 PS       0.124600
   6673 C2         35.2760   21.3680    3.9070 c3       418 PS       0.031000
   6674 C1         36.3960   21.9080    4.8570 c3       418 PS       0.000400
   6675 CG         37.5960   22.0180    3.9970 ca       418 PS       0.250900
   6676 CD1        38.0460   23.1980    3.4170 ca       418 PS      -0.270200
   6677 CE1        39.2160   23.1980    2.5670 ca       418 PS      -0.050500
   6678 CZ         39.8560   21.9480    2.2470 ca       418 PS      -0.188800
   6679 CE2        39.3260   20.7380    2.7970 ca       418 PS      -0.050500
   6680 CD2        38.2060   20.8180    3.6570 ca       418 PS      -0.270200
   6681 H21        35.7260   20.5980    3.2770 hc       418 PS      -0.016200
   6682 H22        34.8460   22.1680    3.2870 hc       418 PS      -0.016200
   6683 H1         36.6160   21.1780    5.6470 hc       418 PS      -0.005300
   6684 HD1        37.5660   24.1380    3.6570 ha       418 PS       0.124600
   6685 HE1        39.6060   24.1880    2.3170 ha       418 PS       0.105800
   6686 HZ         40.6960   21.7980    1.5670 ha       418 PS       0.124800
   6687 HE2        39.6660   19.7480    2.5170 ha       418 PS       0.105800
   6688 HD2        37.9260   19.9180    4.1770 ha       418 PS       0.124600
   6689 C2         35.9760   23.1480    5.6570 c3       419 PS       0.031000
   6690 C1         37.1360   23.8080    6.4770 c3       419 PS       0.000400
   6691 CG         36.7860   25.2280    6.9470 ca       419 PS       0.250900
   6692 CD1        37.6360   26.2680    6.6470 ca       419 PS      -0.270200
   6693 CE1        37.3460   27.6080    7.0570 ca       419 PS      -0.050500
   6694 CZ         36.1360   27.8280    7.7670 ca       419 PS      -0.188800
   6695 CE2        35.3760   26.7380    8.2370 ca       419 PS      -0.050500
   6696 CD2        35.6860   25.4880    7.7970 ca       419 PS      -0.270200
   6697 H21        35.4860   23.8680    4.9870 hc       419 PS      -0.016200
   6698 H22        35.2060   22.8280    6.3570 hc       419 PS      -0.016200
   6699 H1         37.9660   24.0080    5.7970 hc       419 PS      -0.005300
   6700 HD1        38.4360   26.1680    5.9270 ha       419 PS       0.124600
   6701 HE1        37.9760   28.4580    6.8070 ha       419 PS       0.105800
   6702 HZ         35.8160   28.8080    8.1070 ha       419 PS       0.124800
   6703 HE2        34.5660   26.9980    8.9070 ha       419 PS       0.105800
   6704 HD2        35.0060   24.6980    8.1470 ha       419 PS       0.124600
   6705 C2        -42.3940   22.9080    7.6970 c3       420 PS       0.031000
   6706 C1        -41.0640   22.1380    7.3370 c3       420 PS       0.000400
   6707 CG        -39.8940   23.0380    6.9270 ca       420 PS       0.250900
   6708 CD1       -39.4640   24.0480    7.7670 ca       420 PS      -0.270200
   6709 CE1       -38.4140   24.9080    7.3770 ca       420 PS      -0.050500
   6710 CZ        -37.8840   24.7780    6.0570 ca       420 PS      -0.188800
   6711 CE2       -38.3740   23.7880    5.2170 ca       420 PS      -0.050500
   6712 CD2       -39.3340   22.8680    5.6570 ca       420 PS      -0.270200
   6713 H21       -42.2340   23.5980    8.5370 hc       420 PS      -0.016200
   6714 H22       -43.1740   22.1780    7.9470 hc       420 PS      -0.016200
   6715 H1        -40.8740   21.4480    8.1670 hc       420 PS      -0.005300
   6716 HD1       -39.9740   24.0980    8.7270 ha       420 PS       0.124600
   6717 HE1       -37.9940   25.6880    8.0170 ha       420 PS       0.105800
   6718 HZ        -37.0940   25.3980    5.6670 ha       420 PS       0.124800
   6719 HE2       -37.9640   23.7180    4.2170 ha       420 PS       0.105800
   6720 HD2       -39.6140   22.1280    4.9270 ha       420 PS       0.124600
   6721 C2        -27.3440   20.5580    7.8670 c3       421 PS       0.031000
   6722 C1        -27.2040   22.1080    7.4270 c3       421 PS       0.000400
   6723 CG        -26.1740   22.2480    6.3270 ca       421 PS       0.250900
   6724 CD1       -26.5340   21.8280    4.9870 ca       421 PS      -0.270200
   6725 CE1       -25.5540   21.7880    4.0270 ca       421 PS      -0.050500
   6726 CZ        -24.2140   22.3680    4.2870 ca       421 PS      -0.188800
   6727 CE2       -23.9340   22.7280    5.5570 ca       421 PS      -0.050500
   6728 CD2       -24.9140   22.7880    6.5370 ca       421 PS      -0.270200
   6729 H21       -26.4640   20.1980    8.4170 hc       421 PS      -0.016200
   6730 H22       -28.2240   20.4780    8.5170 hc       421 PS      -0.016200
   6731 H1        -26.7240   22.6080    8.2770 hc       421 PS      -0.005300
   6732 HD1       -27.5040   21.3680    4.7970 ha       421 PS       0.124600
   6733 HE1       -25.7740   21.3980    3.0370 ha       421 PS       0.105800
   6734 HZ        -23.4140   22.2580    3.5670 ha       421 PS       0.124800
   6735 HE2       -22.9040   23.0280    5.7670 ha       421 PS       0.105800
   6736 HD2       -24.5740   23.0680    7.5270 ha       421 PS       0.124600
   6737 C2        -28.6240   22.7280    7.0370 c3       422 PS       0.031000
   6738 C1        -28.7240   24.2180    6.5670 c3       422 PS       0.000400
   6739 CG        -28.4540   24.3880    5.0670 ca       422 PS       0.250900
   6740 CD1       -27.5940   25.4280    4.7070 ca       422 PS      -0.270200
   6741 CE1       -27.3840   25.7680    3.3570 ca       422 PS      -0.050500
   6742 CZ        -28.0540   25.0380    2.3470 ca       422 PS      -0.188800
   6743 CE2       -28.9140   23.9480    2.6770 ca       422 PS      -0.050500
   6744 CD2       -29.0740   23.5580    4.0370 ca       422 PS      -0.270200
   6745 H21       -29.0540   21.9680    6.3570 hc       422 PS      -0.016200
   6746 H22       -29.1740   22.6180    7.9770 hc       422 PS      -0.016200
   6747 H1        -27.9740   24.6380    7.2470 hc       422 PS      -0.005300
   6748 HD1       -27.0640   25.9480    5.5070 ha       422 PS       0.124600
   6749 HE1       -26.8340   26.6380    3.0270 ha       422 PS       0.105800
   6750 HZ        -27.9940   25.4080    1.3270 ha       422 PS       0.124800
   6751 HE2       -29.4940   23.4580    1.8970 ha       422 PS       0.105800
   6752 HD2       -29.7840   22.8080    4.3570 ha       422 PS       0.124600
   6753 C2        -30.1140   24.8380    6.8470 c3       423 PS       0.031000
   6754 C1        -30.4140   26.3180    6.4470 c3       423 PS       0.000400
   6755 CG        -31.9040   26.6380    6.6570 ca       423 PS       0.250900
   6756 CD1       -32.4440   27.4580    7.5970 ca       423 PS      -0.270200
   6757 CE1       -33.7840   27.7880    7.5270 ca       423 PS      -0.050500
   6758 CZ        -34.6140   27.2680    6.5770 ca       423 PS      -0.188800
   6759 CE2       -34.1940   26.3680    5.6570 ca       423 PS      -0.050500
   6760 CD2       -32.8140   26.0780    5.6470 ca       423 PS      -0.270200
   6761 H21       -30.8240   24.1380    6.3870 hc       423 PS      -0.016200
   6762 H22       -30.2240   24.7980    7.9370 hc       423 PS      -0.016200
   6763 H1        -30.1840   26.3080    5.3770 hc       423 PS      -0.005300
   6764 HD1       -31.8340   27.9580    8.3470 ha       423 PS       0.124600
   6765 HE1       -34.1440   28.5480    8.2170 ha       423 PS       0.105800
   6766 HZ        -35.5940   27.7280    6.4770 ha       423 PS       0.124800
   6767 HE2       -34.8740   25.9380    4.9370 ha       423 PS       0.105800
   6768 HD2       -32.4540   25.4580    4.8370 ha       423 PS       0.124600
   6769 C2        -29.3340   27.3780    7.0870 c3       424 PS       0.031000
   6770 C1        -29.0240   28.5880    6.1870 c3       424 PS       0.000400
   6771 CG        -28.0440   29.5880    6.7770 ca       424 PS       0.250900
   6772 CD1       -26.7240   29.5080    6.2770 ca       424 PS      -0.270200
   6773 CE1       -25.7740   30.4280    6.7770 ca       424 PS      -0.050500
   6774 CZ        -26.1540   31.4880    7.6570 ca       424 PS      -0.188800
   6775 CE2       -27.4940   31.6080    8.0570 ca       424 PS      -0.050500
   6776 CD2       -28.4040   30.7080    7.5970 ca       424 PS      -0.270200
   6777 H21       -29.6040   27.6980    8.0970 hc       424 PS      -0.016200
   6778 H22       -28.3840   26.8580    7.2470 hc       424 PS      -0.016200
   6779 H1        -28.5340   28.1880    5.2870 hc       424 PS      -0.005300
   6780 HD1       -26.4340   28.7980    5.5070 ha       424 PS       0.124600
   6781 HE1       -24.7540   30.3480    6.3970 ha       424 PS       0.105800
   6782 HZ        -25.4640   32.2380    8.0270 ha       424 PS       0.124800
   6783 HE2       -27.8340   32.4280    8.6770 ha       424 PS       0.105800
   6784 HD2       -29.4440   30.9380    7.8370 ha       424 PS       0.124600
   6785 C2        -30.4040   29.2480    5.7670 c3       425 PS       0.031000
   6786 C1        -30.2540   30.3080    4.6170 c3       425 PS       0.000400
   6787 CG        -29.2840   29.7180    3.5970 ca       425 PS       0.250900
   6788 CD1       -28.0840   30.3580    3.4770 ca       425 PS      -0.270200
   6789 CE1       -27.3040   29.9480    2.3470 ca       425 PS      -0.050500
   6790 CZ        -27.6640   28.8880    1.5170 ca       425 PS      -0.188800
   6791 CE2       -28.8540   28.1880    1.8070 ca       425 PS      -0.050500
   6792 CD2       -29.6740   28.6380    2.7970 ca       425 PS      -0.270200
   6793 H21       -31.0740   28.5080    5.2970 hc       425 PS      -0.016200
   6794 H22       -30.9440   29.6180    6.6470 hc       425 PS      -0.016200
   6795 H1        -29.7140   31.1780    5.0170 hc       425 PS      -0.005300
   6796 HD1       -27.7740   31.2680    3.9770 ha       425 PS       0.124600
   6797 HE1       -26.3340   30.4080    2.2070 ha       425 PS       0.105800
   6798 HZ        -26.9540   28.6580    0.7270 ha       425 PS       0.124800
   6799 HE2       -29.1140   27.3780    1.1370 ha       425 PS       0.105800
   6800 HD2       -30.5640   28.0580    3.0370 ha       425 PS       0.124600
   6801 C2        -31.6040   30.7680    4.0270 c3       426 PS       0.031000
   6802 C1        -32.6740   31.5180    4.9770 c3       426 PS       0.000400
   6803 CG        -32.0940   32.6480    5.8870 ca       426 PS       0.250900
   6804 CD1       -31.6740   33.8680    5.2970 ca       426 PS      -0.270200
   6805 CE1       -31.2040   34.9180    6.0870 ca       426 PS      -0.050500
   6806 CZ        -31.3040   34.8680    7.4570 ca       426 PS      -0.188800
   6807 CE2       -31.6940   33.6780    8.0770 ca       426 PS      -0.050500
   6808 CD2       -31.9840   32.5180    7.3270 ca       426 PS      -0.270200
   6809 H21       -31.3340   31.5680    3.3170 hc       426 PS      -0.016200
   6810 H22       -32.0940   29.9180    3.5570 hc       426 PS      -0.016200
   6811 H1        -32.9440   30.6780    5.6170 hc       426 PS      -0.005300
   6812 HD1       -31.6540   33.9480    4.2170 ha       426 PS       0.124600
   6813 HE1       -30.8140   35.8480    5.6670 ha       426 PS       0.105800
   6814 HZ        -31.1240   35.8480    7.8870 ha       426 PS       0.124800
   6815 HE2       -31.8340   33.6080    9.1570 ha       426 PS       0.105800
   6816 HD2       -32.3040   31.5980    7.8070 ha       426 PS       0.124600
   6817 C2        -33.9740   31.8680    4.1170 c3       427 PS       0.031000
   6818 C1        -35.1340   32.2880    5.0670 c3       427 PS       0.000400
   6819 CG        -34.9340   33.6380    5.8270 ca       427 PS       0.250900
   6820 CD1       -35.0540   33.5880    7.2370 ca       427 PS      -0.270200
   6821 CE1       -35.0440   34.7480    7.9670 ca       427 PS      -0.050500
   6822 CZ        -34.9740   35.9980    7.2870 ca       427 PS      -0.188800
   6823 CE2       -34.9840   36.0680    5.9070 ca       427 PS      -0.050500
   6824 CD2       -34.8840   34.8680    5.1970 ca       427 PS      -0.270200
   6825 H21       -33.7140   32.7080    3.4570 hc       427 PS      -0.016200
   6826 H22       -34.2640   30.9780    3.5570 hc       427 PS      -0.016200
   6827 H1        -35.2040   31.4380    5.7570 hc       427 PS      -0.005300
   6828 HD1       -34.9740   32.5980    7.6870 ha       427 PS       0.124600
   6829 HE1       -35.0040   34.6680    9.0470 ha       427 PS       0.105800
   6830 HZ        -34.8840   36.9180    7.8670 ha       427 PS       0.124800
   6831 HE2       -35.0440   37.0380    5.4170 ha       427 PS       0.105800
   6832 HD2       -34.9640   34.8880    4.1170 ha       427 PS       0.124600
   6833 C2        -36.3340   32.3280    4.1270 c3       428 PS       0.031000
   6834 C1        -37.6540   32.7080    4.8670 c3       428 PS       0.000400
   6835 CG        -38.2240   31.5680    5.6670 ca       428 PS       0.250900
   6836 CD1       -38.4340   31.7680    7.0370 ca       428 PS      -0.270200
   6837 CE1       -39.0740   30.7880    7.8670 ca       428 PS      -0.050500
   6838 CZ        -39.4240   29.5380    7.2670 ca       428 PS      -0.188800
   6839 CE2       -39.1040   29.2480    5.9270 ca       428 PS      -0.050500
   6840 CD2       -38.4740   30.2880    5.1370 ca       428 PS      -0.270200
   6841 H21       -36.1440   33.1280    3.4070 hc       428 PS      -0.016200
   6842 H22       -36.4140   31.3880    3.5670 hc       428 PS      -0.016200
   6843 H1        -37.3340   33.5280    5.5170 hc       428 PS      -0.005300
   6844 HD1       -38.0840   32.7280    7.3970 ha       428 PS       0.124600
   6845 HE1       -39.2540   31.0580    8.9070 ha       428 PS       0.105800
   6846 HZ        -39.9540   28.7580    7.8070 ha       428 PS       0.124800
   6847 HE2       -39.2040   28.2580    5.4770 ha       428 PS       0.105800
   6848 HD2       -38.2640   30.0180    4.1070 ha       428 PS       0.124600
   6849 C2        -38.7140   33.3880    3.8770 c3       429 PS       0.031000
   6850 C1        -39.8940   34.0380    4.6570 c3       429 PS       0.000400
   6851 CG        -39.5840   35.1680    5.5170 ca       429 PS       0.250900
   6852 CD1       -40.4240   35.5280    6.6470 ca       429 PS      -0.270200
   6853 CE1       -40.1840   36.6280    7.4770 ca       429 PS      -0.050500
   6854 CZ        -39.0140   37.4180    7.2170 ca       429 PS      -0.188800
   6855 CE2       -38.2240   37.1580    6.0870 ca       429 PS      -0.050500
   6856 CD2       -38.5240   36.0180    5.2670 ca       429 PS      -0.270200
   6857 H21       -38.2940   34.1580    3.2170 hc       429 PS      -0.016200
   6858 H22       -39.0440   32.6480    3.1470 hc       429 PS      -0.016200
   6859 H1        -40.3140   33.3480    5.3870 hc       429 PS      -0.005300
   6860 HD1       -41.2640   34.8880    6.8970 ha       429 PS       0.124600
   6861 HE1       -40.8040   36.9280    8.3170 ha       429 PS       0.105800
   6862 HZ        -38.6840   38.2080    7.8970 ha       429 PS       0.124800
   6863 HE2       -37.2540   37.6080    5.9070 ha       429 PS       0.105800
   6864 HD2       -37.8640   35.8080    4.4370 ha       429 PS       0.124600
   6865 C2         38.7860   34.2280    3.7470 c3       430 PS       0.031000
   6866 C1         37.8260   33.0280    3.9870 c3       430 PS       0.000400
   6867 CG         37.3460   32.8480    5.3870 ca       430 PS       0.250900
   6868 CD1        37.7660   31.7180    6.0970 ca       430 PS      -0.270200
   6869 CE1        37.2660   31.4580    7.3370 ca       430 PS      -0.050500
   6870 CZ         36.4060   32.3580    7.9870 ca       430 PS      -0.188800
   6871 CE2        36.0160   33.5280    7.2770 ca       430 PS      -0.050500
   6872 CD2        36.5160   33.8380    6.0470 ca       430 PS      -0.270200
   6873 H21        38.3060   35.2080    3.7370 hc       430 PS      -0.016200
   6874 H22        39.0760   34.2780    2.6870 hc       430 PS      -0.016200
   6875 H1         38.4960   32.1780    3.7970 hc       430 PS      -0.005300
   6876 HD1        38.5560   31.0780    5.7170 ha       430 PS       0.124600
   6877 HE1        37.6360   30.5780    7.8570 ha       430 PS       0.105800
   6878 HZ         36.0860   32.1880    9.0070 ha       430 PS       0.124800
   6879 HE2        35.2360   34.1680    7.6970 ha       430 PS       0.105800
   6880 HD2        36.1060   34.6680    5.4870 ha       430 PS       0.124600
   6881 C2         36.6860   32.9980    3.0270 c3       431 PS       0.031000
   6882 C1         35.8460   31.6280    3.0070 c3       431 PS       0.000400
   6883 CG         36.8660   30.4880    2.7570 ca       431 PS       0.250900
   6884 CD1        36.8760   29.5580    3.8270 ca       431 PS      -0.270200
   6885 CE1        37.7060   28.4480    3.7670 ca       431 PS      -0.050500
   6886 CZ         38.5760   28.3980    2.6170 ca       431 PS      -0.188800
   6887 CE2        38.5260   29.3380    1.5870 ca       431 PS      -0.050500
   6888 CD2        37.6660   30.4180    1.6470 ca       431 PS      -0.270200
   6889 H21        35.9260   33.7480    3.2970 hc       431 PS      -0.016200
   6890 H22        37.0360   33.2080    2.0170 hc       431 PS      -0.016200
   6891 H1         35.3960   31.5380    4.0070 hc       431 PS      -0.005300
   6892 HD1        36.1960   29.7180    4.6570 ha       431 PS       0.124600
   6893 HE1        37.8060   27.7880    4.6170 ha       431 PS       0.105800
   6894 HZ         39.3860   27.6780    2.5170 ha       431 PS       0.124800
   6895 HE2        39.2260   29.3280    0.7670 ha       431 PS       0.105800
   6896 HD2        37.6360   31.1880    0.8870 ha       431 PS       0.124600
   6897 C2         34.7460   31.6480    1.9870 c3       432 PS       0.031000
   6898 C1         33.8960   30.3180    1.8270 c3       432 PS       0.000400
   6899 CG         33.7960   29.4880    3.0970 ca       432 PS       0.250900
   6900 CD1        33.1360   30.1980    4.1470 ca       432 PS      -0.270200
   6901 CE1        32.9160   29.5780    5.4170 ca       432 PS      -0.050500
   6902 CZ         33.3960   28.3180    5.6270 ca       432 PS      -0.188800
   6903 CE2        34.0860   27.5480    4.6470 ca       432 PS      -0.050500
   6904 CD2        34.3260   28.2180    3.3870 ca       432 PS      -0.270200
   6905 H21        34.1160   32.4680    2.3570 hc       432 PS      -0.016200
   6906 H22        35.1760   32.0380    1.0470 hc       432 PS      -0.016200
   6907 H1         32.9060   30.7380    1.6070 hc       432 PS      -0.005300
   6908 HD1        32.6960   31.1780    3.9770 ha       432 PS       0.124600
   6909 HE1        32.3760   30.2180    6.1170 ha       432 PS       0.105800
   6910 HZ         33.3360   27.8280    6.5970 ha       432 PS       0.124800
   6911 HE2        34.4560   26.5780    4.9670 ha       432 PS       0.105800
   6912 HD2        34.9160   27.7780    2.5870 ha       432 PS       0.124600
   6913 C2         34.4660   29.5980    0.5270 c3       433 PS       0.031000
   6914 C1         33.4560   28.5380    0.0470 c3       433 PS       0.000400
   6915 CG         32.4060   29.1880   -0.8130 ca       433 PS       0.250900
   6916 CD1        31.1560   29.2580   -0.1730 ca       433 PS      -0.270200
   6917 CE1        30.0460   29.4680   -1.0030 ca       433 PS      -0.050500
   6918 CZ         30.2060   29.7780   -2.3830 ca       433 PS      -0.188800
   6919 CE2        31.4360   29.8480   -2.9330 ca       433 PS      -0.050500
   6920 CD2        32.5760   29.5580   -2.1630 ca       433 PS      -0.270200
   6921 H21        34.6160   30.3480   -0.2630 hc       433 PS      -0.016200
   6922 H22        35.3460   28.9680    0.7170 hc       433 PS      -0.016200
   6923 H1         33.0760   28.0980    0.9770 hc       433 PS      -0.005300
   6924 HD1        31.0060   29.0380    0.8770 ha       433 PS       0.124600
   6925 HE1        29.0160   29.3780   -0.6530 ha       433 PS       0.105800
   6926 HZ         29.3360   29.8180   -3.0330 ha       433 PS       0.124800
   6927 HE2        31.6460   30.0380   -3.9830 ha       433 PS       0.105800
   6928 HD2        33.4960   29.3980   -2.7230 ha       433 PS       0.124600
   6929 C2         34.1260   27.3780   -0.7530 c3       434 PS       0.031000
   6930 C1         33.0660   26.4080   -1.3930 c3       434 PS       0.000400
   6931 CG         32.4860   25.5480   -0.2330 ca       434 PS       0.250900
   6932 CD1        31.1960   25.8180    0.2070 ca       434 PS      -0.270200
   6933 CE1        30.5160   25.2180    1.2770 ca       434 PS      -0.050500
   6934 CZ         31.2860   24.2280    1.8970 ca       434 PS      -0.188800
   6935 CE2        32.6060   23.9380    1.5870 ca       434 PS      -0.050500
   6936 CD2        33.2360   24.5580    0.4470 ca       434 PS      -0.270200
   6937 H21        34.8760   27.7280   -1.4730 hc       434 PS      -0.016200
   6938 H22        34.8160   26.8880   -0.0530 hc       434 PS      -0.016200
   6939 H1         32.3160   27.0680   -1.8330 hc       434 PS      -0.005300
   6940 HD1        30.7260   26.6180   -0.3630 ha       434 PS       0.124600
   6941 HE1        29.5860   25.5680    1.7170 ha       434 PS       0.105800
   6942 HZ         30.8660   23.6380    2.7070 ha       434 PS       0.124800
   6943 HE2        33.2360   23.2480    2.1370 ha       434 PS       0.105800
   6944 HD2        34.1460   24.2380   -0.0430 ha       434 PS       0.124600
   6945 C2         33.7460   25.6880   -2.5730 c3       435 PS       0.031000
   6946 C1         32.6460   25.0880   -3.5130 c3       435 PS       0.000400
   6947 CG         31.8360   26.1580   -4.2630 ca       435 PS       0.250900
   6948 CD1        32.2560   26.7380   -5.4530 ca       435 PS      -0.270200
   6949 CE1        31.3760   27.5680   -6.2130 ca       435 PS      -0.050500
   6950 CZ         30.1160   27.8780   -5.7830 ca       435 PS      -0.188800
   6951 CE2        29.6060   27.2280   -4.6230 ca       435 PS      -0.050500
   6952 CD2        30.4260   26.3680   -3.8730 ca       435 PS      -0.270200
   6953 H21        34.3060   26.4180   -3.1730 hc       435 PS      -0.016200
   6954 H22        34.4460   24.9380   -2.1830 hc       435 PS      -0.016200
   6955 H1         33.3060   24.5980   -4.2430 hc       435 PS      -0.005300
   6956 HD1        33.1960   26.4880   -5.9330 ha       435 PS       0.124600
   6957 HE1        31.6860   27.8380   -7.2230 ha       435 PS       0.105800
   6958 HZ         29.5360   28.5780   -6.3730 ha       435 PS       0.124800
   6959 HE2        28.6260   27.4180   -4.2030 ha       435 PS       0.105800
   6960 HD2        30.1260   25.8080   -2.9930 ha       435 PS       0.124600
   6961 C2         31.9660   23.9180   -2.7630 c3       436 PS       0.031000
   6962 C1         31.2760   22.9680   -3.7430 c3       436 PS       0.000400
   6963 CG         29.7460   23.2380   -3.6030 ca       436 PS       0.250900
   6964 CD1        29.1060   22.5780   -2.5430 ca       436 PS      -0.270200
   6965 CE1        27.7060   22.4380   -2.4630 ca       436 PS      -0.050500
   6966 CZ         26.9360   23.0380   -3.4630 ca       436 PS      -0.188800
   6967 CE2        27.5460   23.7880   -4.4330 ca       436 PS      -0.050500
   6968 CD2        28.9160   23.8280   -4.5730 ca       436 PS      -0.270200
   6969 H21        32.6960   23.3280   -2.1930 hc       436 PS      -0.016200
   6970 H22        31.2360   24.2380   -2.0130 hc       436 PS      -0.016200
   6971 H1         31.6060   23.1880   -4.7730 hc       436 PS      -0.005300
   6972 HD1        29.6960   22.0980   -1.7530 ha       436 PS       0.124600
   6973 HE1        27.1960   21.8880   -1.6830 ha       436 PS       0.105800
   6974 HZ         25.8560   23.0380   -3.3430 ha       436 PS       0.124800
   6975 HE2        26.8760   24.2280   -5.1630 ha       436 PS       0.105800
   6976 HD2        29.3560   24.3780   -5.3930 ha       436 PS       0.124600
   6977 C2         31.5560   21.3980   -3.5030 c3       437 PS       0.031000
   6978 C1         30.9360   20.5380   -4.6430 c3       437 PS       0.000400
   6979 CG         31.9060   20.4780   -5.8230 ca       437 PS       0.250900
   6980 CD1        31.4960   20.7880   -7.0930 ca       437 PS      -0.270200
   6981 CE1        32.4060   20.6680   -8.1330 ca       437 PS      -0.050500
   6982 CZ         33.7660   20.3180   -7.9230 ca       437 PS      -0.188800
   6983 CE2        34.1860   20.0480   -6.6730 ca       437 PS      -0.050500
   6984 CD2        33.2560   20.0680   -5.6430 ca       437 PS      -0.270200
   6985 H21        32.6560   21.4080   -3.5730 hc       437 PS      -0.016200
   6986 H22        31.3060   21.0280   -2.5030 hc       437 PS      -0.016200
   6987 H1         30.0060   20.9880   -5.0230 hc       437 PS      -0.005300
   6988 HD1        30.4460   21.0080   -7.2430 ha       437 PS       0.124600
   6989 HE1        32.0660   20.8080   -9.1530 ha       437 PS       0.105800
   6990 HZ         34.4660   20.3980   -8.7530 ha       437 PS       0.124800
   6991 HE2        35.1960   19.6780   -6.5130 ha       437 PS       0.105800
   6992 HD2        33.5760   19.7080   -4.6730 ha       437 PS       0.124600
   6993 C2         30.6760   19.0880   -4.1130 c3       438 PS       0.031000
   6994 C1         29.7960   18.1680   -5.0030 c3       438 PS       0.000400
   6995 CG         28.6560   18.9280   -5.5030 ca       438 PS       0.250900
   6996 CD1        28.5360   19.0980   -6.9130 ca       438 PS      -0.270200
   6997 CE1        27.4360   19.8280   -7.4330 ca       438 PS      -0.050500
   6998 CZ         26.4560   20.3680   -6.6130 ca       438 PS      -0.188800
   6999 CE2        26.6460   20.2780   -5.2230 ca       438 PS      -0.050500
   7000 CD2        27.7160   19.5780   -4.6730 ca       438 PS      -0.270200
   7001 H21        31.6060   18.5280   -3.9030 hc       438 PS      -0.016200
   7002 H22        30.2560   19.1580   -3.1030 hc       438 PS      -0.016200
   7003 H1         30.3460   17.7680   -5.8630 hc       438 PS      -0.005300
   7004 HD1        29.2660   18.7380   -7.6330 ha       438 PS       0.124600
   7005 HE1        27.4060   19.8380   -8.5130 ha       438 PS       0.105800
   7006 HZ         25.5960   20.8980   -7.0130 ha       438 PS       0.124800
   7007 HE2        25.8560   20.6480   -4.5830 ha       438 PS       0.105800
   7008 HD2        27.8260   19.5080   -3.5930 ha       438 PS       0.124600
   7009 C2         29.2960   16.8180   -4.2330 c3       439 PS       0.031000
   7010 C1         28.6060   15.7480   -5.2030 c3       439 PS       0.000400
   7011 CG         27.2460   16.0980   -5.8230 ca       439 PS       0.250900
   7012 CD1        26.1660   16.6780   -5.0730 ca       439 PS      -0.270200
   7013 CE1        24.9060   16.9980   -5.7030 ca       439 PS      -0.050500
   7014 CZ         24.7160   16.6280   -6.9730 ca       439 PS      -0.188800
   7015 CE2        25.7660   15.9480   -7.7030 ca       439 PS      -0.050500
   7016 CD2        26.9560   15.6780   -7.1030 ca       439 PS      -0.270200
   7017 H21        30.1860   16.4280   -3.7230 hc       439 PS      -0.016200
   7018 H22        28.6260   17.0780   -3.4030 hc       439 PS      -0.016200
   7019 H1         29.3260   15.6080   -6.0230 hc       439 PS      -0.005300
   7020 HD1        26.3560   16.8880   -4.0230 ha       439 PS       0.124600
   7021 HE1        24.0860   17.4580   -5.1630 ha       439 PS       0.105800
   7022 HZ         23.7460   16.6880   -7.4430 ha       439 PS       0.124800
   7023 HE2        25.4860   15.5580   -8.6830 ha       439 PS       0.105800
   7024 HD2        27.8060   15.3180   -7.6830 ha       439 PS       0.124600
   7025 C2         28.4560   14.3580   -4.4430 c3       440 PS       0.031000
   7026 C1         28.5960   13.1680   -5.4530 c3       440 PS       0.000400
   7027 CG         29.9660   13.2080   -6.1830 ca       440 PS       0.250900
   7028 CD1        29.9760   13.3080   -7.6230 ca       440 PS      -0.270200
   7029 CE1        31.1860   13.5780   -8.2630 ca       440 PS      -0.050500
   7030 CZ         32.4160   13.8380   -7.6130 ca       440 PS      -0.188800
   7031 CE2        32.3560   13.6880   -6.1830 ca       440 PS      -0.050500
   7032 CD2        31.1460   13.3880   -5.4930 ca       440 PS      -0.270200
   7033 H21        29.3060   14.3180   -3.7530 hc       440 PS      -0.016200
   7034 H22        27.4860   14.2880   -3.9430 hc       440 PS      -0.016200
   7035 H1         27.8260   13.2580   -6.2230 hc       440 PS      -0.005300
   7036 HD1        29.0660   13.2180   -8.2230 ha       440 PS       0.124600
   7037 HE1        31.1260   13.5680   -9.3430 ha       440 PS       0.105800
   7038 HZ         33.3160   14.1080   -8.1530 ha       440 PS       0.124800
   7039 HE2        33.2060   13.9480   -5.5630 ha       440 PS       0.105800
   7040 HD2        31.1960   13.3780   -4.4130 ha       440 PS       0.124600
   7041 C2         28.4460   11.7880   -4.7730 c3       441 PS       0.031000
   7042 C1         26.9360   11.2180   -4.7030 c3       441 PS       0.000400
   7043 CG         26.0360   12.3680   -4.1930 ca       441 PS       0.250900
   7044 CD1        25.9860   12.5780   -2.8130 ca       441 PS      -0.270200
   7045 CE1        25.0860   13.5580   -2.3430 ca       441 PS      -0.050500
   7046 CZ         24.2560   14.2780   -3.1930 ca       441 PS      -0.188800
   7047 CE2        24.2660   14.0380   -4.6030 ca       441 PS      -0.050500
   7048 CD2        25.1160   12.9880   -5.1130 ca       441 PS      -0.270200
   7049 H21        29.0960   11.1280   -5.3730 hc       441 PS      -0.016200
   7050 H22        28.8960   11.6580   -3.7830 hc       441 PS      -0.016200
   7051 H1         26.5460   10.9080   -5.6830 hc       441 PS      -0.005300
   7052 HD1        26.5460   11.9780   -2.0930 ha       441 PS       0.124600
   7053 HE1        25.0860   13.7380   -1.2730 ha       441 PS       0.105800
   7054 HZ         23.6560   15.1180   -2.8530 ha       441 PS       0.124800
   7055 HE2        23.5960   14.5880   -5.2530 ha       441 PS       0.105800
   7056 HD2        25.1060   12.7980   -6.1830 ha       441 PS       0.124600
   7057 C2         26.8360    9.9680   -3.8530 c3       442 PS       0.031000
   7058 C1         27.0360    8.6180   -4.6830 c3       442 PS       0.000400
   7059 CG         28.4060    8.5780   -5.4930 ca       442 PS       0.250900
   7060 CD1        28.3060    8.9780   -6.8030 ca       442 PS      -0.270200
   7061 CE1        29.4760    9.0580   -7.5730 ca       442 PS      -0.050500
   7062 CZ         30.7560    8.7780   -7.0530 ca       442 PS      -0.188800
   7063 CE2        30.8660    8.4080   -5.6530 ca       442 PS      -0.050500
   7064 CD2        29.7060    8.3580   -4.8830 ca       442 PS      -0.270200
   7065 H21        27.5860   10.0780   -3.0530 hc       442 PS      -0.016200
   7066 H22        25.8460    9.9080   -3.3930 hc       442 PS      -0.016200
   7067 H1         26.2560    8.4680   -5.4330 hc       442 PS      -0.005300
   7068 HD1        27.3460    9.3080   -7.1830 ha       442 PS       0.124600
   7069 HE1        29.4160    9.3080   -8.6230 ha       442 PS       0.105800
   7070 HZ         31.6060    8.9380   -7.7130 ha       442 PS       0.124800
   7071 HE2        31.7960    8.1580   -5.1530 ha       442 PS       0.105800
   7072 HD2        29.7460    8.0180   -3.8530 ha       442 PS       0.124600
   7073 C2         27.0460    7.3480   -3.7930 c3       443 PS       0.031000
   7074 C1         26.9160    5.9480   -4.5830 c3       443 PS       0.000400
   7075 CG         25.6560    5.8080   -5.4630 ca       443 PS       0.250900
   7076 CD1        24.3760    5.9680   -4.8530 ca       443 PS      -0.270200
   7077 CE1        23.2560    5.7880   -5.6730 ca       443 PS      -0.050500
   7078 CZ         23.3760    5.3480   -6.9930 ca       443 PS      -0.188800
   7079 CE2        24.6260    5.1980   -7.6030 ca       443 PS      -0.050500
   7080 CD2        25.7860    5.4380   -6.8130 ca       443 PS      -0.270200
   7081 H21        27.8860    7.3180   -3.0930 hc       443 PS      -0.016200
   7082 H22        26.1060    7.4980   -3.2430 hc       443 PS      -0.016200
   7083 H1         27.8660    5.8980   -5.1230 hc       443 PS      -0.005300
   7084 HD1        24.3260    6.3080   -3.8230 ha       443 PS       0.124600
   7085 HE1        22.2560    5.9380   -5.2830 ha       443 PS       0.105800
   7086 HZ         22.5260    5.2680   -7.6630 ha       443 PS       0.124800
   7087 HE2        24.7360    4.7980   -8.6130 ha       443 PS       0.105800
   7088 HD2        26.7560    5.4480   -7.3030 ha       443 PS       0.124600
   7089 C2         27.1060    4.7580   -3.5630 c3       444 PS       0.031000
   7090 C1         27.8760    3.5080   -4.1730 c3       444 PS       0.000400
   7091 CG         27.2760    2.9280   -5.4730 ca       444 PS       0.250900
   7092 CD1        28.0260    2.9980   -6.6930 ca       444 PS      -0.270200
   7093 CE1        27.4460    2.5880   -7.9130 ca       444 PS      -0.050500
   7094 CZ         26.1060    2.0880   -7.9230 ca       444 PS      -0.188800
   7095 CE2        25.3560    2.0580   -6.7730 ca       444 PS      -0.050500
   7096 CD2        25.9660    2.4180   -5.5530 ca       444 PS      -0.270200
   7097 H21        27.7260    5.1080   -2.7330 hc       444 PS      -0.016200
   7098 H22        26.2160    4.4780   -2.9930 hc       444 PS      -0.016200
   7099 H1         28.8160    3.8980   -4.5730 hc       444 PS      -0.005300
   7100 HD1        29.0060    3.4680   -6.7630 ha       444 PS       0.124600
   7101 HE1        28.0660    2.5480   -8.8030 ha       444 PS       0.105800
   7102 HZ         25.6460    1.8580   -8.8730 ha       444 PS       0.124800
   7103 HE2        24.3060    1.7780   -6.8130 ha       444 PS       0.105800
   7104 HD2        25.3160    2.4180   -4.6830 ha       444 PS       0.124600
   7105 C2         28.1560    2.4480   -3.0830 c3       445 PS       0.031000
   7106 C1         29.6660    2.1780   -2.7830 c3       445 PS       0.000400
   7107 CG         30.3760    1.4780   -4.0230 ca       445 PS       0.250900
   7108 CD1        31.3960    2.1680   -4.5930 ca       445 PS      -0.270200
   7109 CE1        32.1760    1.6380   -5.6430 ca       445 PS      -0.050500
   7110 CZ         31.7760    0.3780   -6.2030 ca       445 PS      -0.188800
   7111 CE2        30.7860   -0.3420   -5.5630 ca       445 PS      -0.050500
   7112 CD2        30.1160    0.1880   -4.4730 ca       445 PS      -0.270200
   7113 H21        27.5960    2.7280   -2.1730 hc       445 PS      -0.016200
   7114 H22        27.7360    1.5180   -3.4830 hc       445 PS      -0.016200
   7115 H1         29.9860    3.2180   -2.6630 hc       445 PS      -0.005300
   7116 HD1        31.5660    3.2080   -4.3230 ha       445 PS       0.124600
   7117 HE1        32.8360    2.2280   -6.2630 ha       445 PS       0.105800
   7118 HZ         32.1960    0.0080   -7.1330 ha       445 PS       0.124800
   7119 HE2        30.5460   -1.3620   -5.8730 ha       445 PS       0.105800
   7120 HD2        29.2860   -0.2920   -3.9630 ha       445 PS       0.124600
   7121 C2         29.9560    1.4280   -1.5130 c3       446 PS       0.031000
   7122 C1         31.1160    2.0580   -0.7030 c3       446 PS       0.000400
   7123 CG         31.9360    0.8780   -0.2030 ca       446 PS       0.250900
   7124 CD1        33.3560    0.7080   -0.5130 ca       446 PS      -0.270200
   7125 CE1        34.0360   -0.4820   -0.1130 ca       446 PS      -0.050500
   7126 CZ         33.2360   -1.5120    0.4970 ca       446 PS      -0.188800
   7127 CE2        31.8860   -1.2820    0.8270 ca       446 PS      -0.050500
   7128 CD2        31.2660   -0.1220    0.4970 ca       446 PS      -0.270200
   7129 H21        29.1160    1.4680   -0.8130 hc       446 PS      -0.016200
   7130 H22        29.9860    0.3480   -1.6830 hc       446 PS      -0.016200
   7131 H1         31.6360    2.6780   -1.4430 hc       446 PS      -0.005300
   7132 HD1        33.8760    1.4680   -1.1030 ha       446 PS       0.124600
   7133 HE1        35.1060   -0.6620   -0.2230 ha       446 PS       0.105800
   7134 HZ         33.6860   -2.4120    0.9070 ha       446 PS       0.124800
   7135 HE2        31.4060   -2.0920    1.3670 ha       446 PS       0.105800
   7136 HD2        30.1860   -0.0820    0.5770 ha       446 PS       0.124600
   7137 C2         30.6360    2.9280    0.4570 c3       447 PS       0.031000
   7138 C1         31.6960    3.9680    0.9470 c3       447 PS       0.000400
   7139 CG         31.8260    5.1780   -0.0330 ca       447 PS       0.250900
   7140 CD1        33.0560    5.3480   -0.6830 ca       447 PS      -0.270200
   7141 CE1        33.1860    6.4280   -1.6630 ca       447 PS      -0.050500
   7142 CZ         31.9760    7.2580   -1.9530 ca       447 PS      -0.188800
   7143 CE2        30.7560    6.9980   -1.3630 ca       447 PS      -0.050500
   7144 CD2        30.6860    5.9780   -0.3930 ca       447 PS      -0.270200
   7145 H21        29.7060    3.4480    0.2270 hc       447 PS      -0.016200
   7146 H22        30.3860    2.2680    1.2970 hc       447 PS      -0.016200
   7147 H1         32.6560    3.4380    0.9470 hc       447 PS      -0.005300
   7148 HD1        33.9460    4.7980   -0.3830 ha       447 PS       0.124600
   7149 HE1        34.1260    6.6780   -2.1530 ha       447 PS       0.105800
   7150 HZ         31.8960    7.9480   -2.7930 ha       447 PS       0.124800
   7151 HE2        29.8860    7.5780   -1.6430 ha       447 PS       0.105800
   7152 HD2        29.7460    5.7780    0.1170 ha       447 PS       0.124600
   7153 C2         31.3060    4.4880    2.3470 c3       448 PS       0.031000
   7154 C1         32.4160    4.3980    3.4370 c3       448 PS       0.000400
   7155 CG         33.7660    4.9680    2.9470 ca       448 PS       0.250900
   7156 CD1        34.8760    4.1080    2.9670 ca       448 PS      -0.270200
   7157 CE1        36.0460    4.4480    2.3970 ca       448 PS      -0.050500
   7158 CZ         36.1860    5.7280    1.7270 ca       448 PS      -0.188800
   7159 CE2        35.0660    6.5680    1.7270 ca       448 PS      -0.050500
   7160 CD2        33.8860    6.1680    2.2870 ca       448 PS      -0.270200
   7161 H21        31.0160    5.5380    2.1670 hc       448 PS      -0.016200
   7162 H22        30.3760    4.0280    2.7070 hc       448 PS      -0.016200
   7163 H1         32.6360    3.3680    3.7370 hc       448 PS      -0.005300
   7164 HD1        34.8560    3.1680    3.5270 ha       448 PS       0.124600
   7165 HE1        36.9760    3.8880    2.4770 ha       448 PS       0.105800
   7166 HZ         37.0860    5.9880    1.1770 ha       448 PS       0.124800
   7167 HE2        35.1360    7.5080    1.1870 ha       448 PS       0.105800
   7168 HD2        33.0460    6.8680    2.3070 ha       448 PS       0.124600
   7169 C2         31.8960    5.2280    4.6870 c3       449 PS       0.031000
   7170 C1         32.9460    5.5180    5.8370 c3       449 PS       0.000400
   7171 CG         32.3760    6.6980    6.6170 ca       449 PS       0.250900
   7172 CD1        31.1160    6.6080    7.2170 ca       449 PS      -0.270200
   7173 CE1        30.5060    7.6880    7.8770 ca       449 PS      -0.050500
   7174 CZ         31.2060    8.9080    7.9770 ca       449 PS      -0.188800
   7175 CE2        32.4360    9.0380    7.4170 ca       449 PS      -0.050500
   7176 CD2        33.0760    7.9280    6.8370 ca       449 PS      -0.270200
   7177 H21        31.5460    6.2080    4.3470 hc       449 PS      -0.016200
   7178 H22        31.0060    4.7480    5.1170 hc       449 PS      -0.016200
   7179 H1         33.8760    5.7980    5.3370 hc       449 PS      -0.005300
   7180 HD1        30.5760    5.6880    7.0270 ha       449 PS       0.124600
   7181 HE1        29.4760    7.5980    8.2170 ha       449 PS       0.105800
   7182 HZ         30.8060    9.7480    8.5270 ha       449 PS       0.124800
   7183 HE2        33.0160    9.9380    7.5670 ha       449 PS       0.105800
   7184 HD2        33.9760    8.1380    6.2570 ha       449 PS       0.124600
   7185 C2         33.3860    4.3680    6.6870 c3       450 PS       0.031000
   7186 C1         34.2160    4.9680    7.9070 c3       450 PS       0.000400
   7187 CG         35.7160    5.3080    7.6870 ca       450 PS       0.250900
   7188 CD1        36.4960    4.4080    6.9770 ca       450 PS      -0.270200
   7189 CE1        37.8160    4.6280    6.6470 ca       450 PS      -0.050500
   7190 CZ         38.4460    5.7780    7.1070 ca       450 PS      -0.188800
   7191 CE2        37.6460    6.7380    7.8470 ca       450 PS      -0.050500
   7192 CD2        36.2960    6.5480    8.0470 ca       450 PS      -0.270200
   7193 H21        32.6360    3.7880    7.2470 hc       450 PS      -0.016200
   7194 H22        33.9260    3.5380    6.2070 hc       450 PS      -0.016200
   7195 H1         34.1260    4.2480    8.7270 hc       450 PS      -0.005300
   7196 HD1        36.1760    3.4180    6.6870 ha       450 PS       0.124600
   7197 HE1        38.3260    3.9180    6.0070 ha       450 PS       0.105800
   7198 HZ         39.5260    5.8180    6.9670 ha       450 PS       0.124800
   7199 HE2        38.1160    7.6380    8.2470 ha       450 PS       0.105800
   7200 HD2        35.6660    7.3580    8.4170 ha       450 PS       0.124600
   7201 C2        -35.9840    4.7680   -3.3630 c3       451 PS       0.031000
   7202 C1        -35.6640    3.2980   -3.8030 c3       451 PS       0.000400
   7203 CG        -35.8040    3.2680   -5.2730 ca       451 PS       0.250900
   7204 CD1       -36.4540    2.0980   -5.7330 ca       451 PS      -0.270200
   7205 CE1       -36.7340    1.9580   -7.1230 ca       451 PS      -0.050500
   7206 CZ        -36.2740    2.9180   -8.0130 ca       451 PS      -0.188800
   7207 CE2       -35.6740    4.1280   -7.5530 ca       451 PS      -0.050500
   7208 CD2       -35.3940    4.2480   -6.1830 ca       451 PS      -0.270200
   7209 H21       -35.0040    5.2380   -3.2330 hc       451 PS      -0.016200
   7210 H22       -36.4240    4.6480   -2.3730 hc       451 PS      -0.016200
   7211 H1        -36.4540    2.6680   -3.3730 hc       451 PS      -0.005300
   7212 HD1       -36.8040    1.3480   -5.0330 ha       451 PS       0.124600
   7213 HE1       -37.2440    1.0680   -7.4630 ha       451 PS       0.105800
   7214 HZ        -36.4740    2.8080   -9.0730 ha       451 PS       0.124800
   7215 HE2       -35.4340    4.8480   -8.3230 ha       451 PS       0.105800
   7216 HD2       -34.9740    5.1780   -5.8030 ha       451 PS       0.124600
   7217 C2        -34.2540    2.8280   -3.3030 c3       452 PS       0.031000
   7218 C1        -33.8440    3.0580   -1.8730 c3       452 PS       0.000400
   7219 CG        -35.0340    2.7880   -0.9430 ca       452 PS       0.250900
   7220 CD1       -35.5940    3.7780   -0.0930 ca       452 PS      -0.270200
   7221 CE1       -36.7040    3.4580    0.7770 ca       452 PS      -0.050500
   7222 CZ        -37.2040    2.1580    0.7970 ca       452 PS      -0.188800
   7223 CE2       -36.6640    1.1980   -0.0530 ca       452 PS      -0.050500
   7224 CD2       -35.6240    1.4980   -0.9530 ca       452 PS      -0.270200
   7225 H21       -34.2140    1.7580   -3.5230 hc       452 PS      -0.016200
   7226 H22       -33.4940    3.3680   -3.8830 hc       452 PS      -0.016200
   7227 H1        -33.4940    4.0980   -1.8330 hc       452 PS      -0.005300
   7228 HD1       -35.1440    4.7680   -0.0130 ha       452 PS       0.124600
   7229 HE1       -37.2240    4.1380    1.4570 ha       452 PS       0.105800
   7230 HZ        -38.0840    2.0180    1.4170 ha       452 PS       0.124800
   7231 HE2       -37.1040    0.2080   -0.0030 ha       452 PS       0.105800
   7232 HD2       -35.1740    0.7380   -1.5930 ha       452 PS       0.124600
   7233 C2        -32.6140    2.0880   -1.7030 c3       453 PS       0.031000
   7234 C1        -31.5040    2.5380   -0.6330 c3       453 PS       0.000400
   7235 CG        -32.1540    3.0880    0.6670 ca       453 PS       0.250900
   7236 CD1       -32.1340    4.4680    0.9770 ca       453 PS      -0.270200
   7237 CE1       -33.1040    5.0280    1.9070 ca       453 PS      -0.050500
   7238 CZ        -34.0040    4.1380    2.5570 ca       453 PS      -0.188800
   7239 CE2       -33.8640    2.7980    2.4270 ca       453 PS      -0.050500
   7240 CD2       -32.8740    2.2880    1.5570 ca       453 PS      -0.270200
   7241 H21       -32.9340    1.0780   -1.4230 hc       453 PS      -0.016200
   7242 H22       -32.1240    1.9480   -2.6730 hc       453 PS      -0.016200
   7243 H1        -31.0340    3.4680   -0.9530 hc       453 PS      -0.005300
   7244 HD1       -31.5640    5.2280    0.4570 ha       453 PS       0.124600
   7245 HE1       -33.2840    6.0780    2.1370 ha       453 PS       0.105800
   7246 HZ        -34.7740    4.3380    3.2970 ha       453 PS       0.124800
   7247 HE2       -34.4640    2.0880    2.9870 ha       453 PS       0.105800
   7248 HD2       -32.8440    1.2180    1.4070 ha       453 PS       0.124600
   7249 C2        -30.5140    1.4380   -0.3130 c3       454 PS       0.031000
   7250 C1        -29.1140    1.9080    0.1970 c3       454 PS       0.000400
   7251 CG        -27.9240    1.1680   -0.4230 ca       454 PS       0.250900
   7252 CD1       -27.9340   -0.2520   -0.4730 ca       454 PS      -0.270200
   7253 CE1       -26.9040   -0.9120   -1.0230 ca       454 PS      -0.050500
   7254 CZ        -25.8040   -0.2220   -1.5030 ca       454 PS      -0.188800
   7255 CE2       -25.8640    1.1480   -1.6230 ca       454 PS      -0.050500
   7256 CD2       -26.8940    1.8980   -1.0330 ca       454 PS      -0.270200
   7257 H21       -30.9740    0.6980    0.3570 hc       454 PS      -0.016200
   7258 H22       -30.3140    0.9880   -1.2930 hc       454 PS      -0.016200
   7259 H1        -28.9440    2.9580   -0.0930 hc       454 PS      -0.005300
   7260 HD1       -28.7540   -0.7620    0.0170 ha       454 PS       0.124600
   7261 HE1       -26.8840   -1.9820   -0.8230 ha       454 PS       0.105800
   7262 HZ        -24.9440   -0.7520   -1.9130 ha       454 PS       0.124800
   7263 HE2       -24.9440    1.5580   -2.0330 ha       454 PS       0.105800
   7264 HD2       -26.8240    2.9880   -1.0130 ha       454 PS       0.124600
   7265 C2        -28.9340    1.8480    1.8170 c3       455 PS       0.031000
   7266 C1        -27.6840    2.5980    2.3070 c3       455 PS       0.000400
   7267 CG        -27.8440    4.1080    2.0270 ca       455 PS       0.250900
   7268 CD1       -26.7540    4.7080    1.3670 ca       455 PS      -0.270200
   7269 CE1       -26.8040    6.0880    1.1170 ca       455 PS      -0.050500
   7270 CZ        -27.9240    6.8280    1.4370 ca       455 PS      -0.188800
   7271 CE2       -29.0340    6.1980    1.9970 ca       455 PS      -0.050500
   7272 CD2       -29.0340    4.8680    2.2770 ca       455 PS      -0.270200
   7273 H21       -29.8940    2.1680    2.2270 hc       455 PS      -0.016200
   7274 H22       -28.6940    0.7980    2.0270 hc       455 PS      -0.016200
   7275 H1        -26.8440    2.2980    1.6870 hc       455 PS      -0.005300
   7276 HD1       -25.8640    4.2080    1.0070 ha       455 PS       0.124600
   7277 HE1       -25.9140    6.5680    0.7270 ha       455 PS       0.105800
   7278 HZ        -28.0140    7.8780    1.1770 ha       455 PS       0.124800
   7279 HE2       -29.8840    6.8180    2.2970 ha       455 PS       0.105800
   7280 HD2       -29.8240    4.3880    2.8370 ha       455 PS       0.124600
   7281 C2        -27.4540    2.1680    3.7570 c3       456 PS       0.031000
   7282 C1        -26.0240    1.5080    4.1070 c3       456 PS       0.000400
   7283 CG        -25.9240    0.0080    3.7270 ca       456 PS       0.250900
   7284 CD1       -26.1640   -1.0220    4.6270 ca       456 PS      -0.270200
   7285 CE1       -25.9940   -2.3720    4.2670 ca       456 PS      -0.050500
   7286 CZ        -25.5340   -2.6720    2.9870 ca       456 PS      -0.188800
   7287 CE2       -25.2740   -1.6920    2.0870 ca       456 PS      -0.050500
   7288 CD2       -25.4140   -0.3520    2.4670 ca       456 PS      -0.270200
   7289 H21       -27.6140    3.0280    4.4170 hc       456 PS      -0.016200
   7290 H22       -28.2140    1.4280    4.0470 hc       456 PS      -0.016200
   7291 H1        -25.9840    1.5280    5.2070 hc       456 PS      -0.005300
   7292 HD1       -26.5940   -0.8120    5.6070 ha       456 PS       0.124600
   7293 HE1       -26.3440   -3.1520    4.9370 ha       456 PS       0.105800
   7294 HZ        -25.3940   -3.7220    2.7370 ha       456 PS       0.124800
   7295 HE2       -24.9140   -1.8820    1.0770 ha       456 PS       0.105800
   7296 HD2       -25.0840    0.3780    1.7270 ha       456 PS       0.124600
   7297 C2        -24.8140    2.2780    3.7270 c3       457 PS       0.031000
   7298 C1        -24.3940    3.4180    4.7070 c3       457 PS       0.000400
   7299 CG        -23.4140    2.9880    5.6870 ca       457 PS       0.250900
   7300 CD1       -23.7440    2.9580    7.0570 ca       457 PS      -0.270200
   7301 CE1       -22.8540    2.4980    8.0070 ca       457 PS      -0.050500
   7302 CZ        -21.6140    2.0980    7.6070 ca       457 PS      -0.188800
   7303 CE2       -21.1240    2.4480    6.3070 ca       457 PS      -0.050500
   7304 CD2       -22.0740    2.7780    5.3170 ca       457 PS      -0.270200
   7305 H21       -23.9240    1.6280    3.7670 hc       457 PS      -0.016200
   7306 H22       -24.8840    2.6180    2.6870 hc       457 PS      -0.016200
   7307 H1        -25.3140    3.6680    5.2470 hc       457 PS      -0.005300
   7308 HD1       -24.7740    3.1980    7.3070 ha       457 PS       0.124600
   7309 HE1       -23.1940    2.2580    9.0070 ha       457 PS       0.105800
   7310 HZ        -20.9440    1.6080    8.2970 ha       457 PS       0.124800
   7311 HE2       -20.1040    2.1980    6.0170 ha       457 PS       0.105800
   7312 HD2       -21.7240    2.8580    4.2870 ha       457 PS       0.124600
   7313 C2        -24.0340    4.6580    3.8570 c3       458 PS       0.031000
   7314 C1        -23.8540    5.9380    4.7870 c3       458 PS       0.000400
   7315 CG        -25.1140    6.2280    5.6470 ca       458 PS       0.250900
   7316 CD1       -25.0540    6.3280    7.0070 ca       458 PS      -0.270200
   7317 CE1       -26.2440    6.4380    7.8370 ca       458 PS      -0.050500
   7318 CZ        -27.4740    6.7480    7.1770 ca       458 PS      -0.188800
   7319 CE2       -27.4740    6.6180    5.7670 ca       458 PS      -0.050500
   7320 CD2       -26.3640    6.3580    5.0470 ca       458 PS      -0.270200
   7321 H21       -23.1540    4.6080    3.1970 hc       458 PS      -0.016200
   7322 H22       -24.8040    4.9380    3.1170 hc       458 PS      -0.016200
   7323 H1        -23.0040    5.8280    5.4670 hc       458 PS      -0.005300
   7324 HD1       -24.0840    6.2280    7.4770 ha       458 PS       0.124600
   7325 HE1       -26.1240    6.5080    8.9070 ha       458 PS       0.105800
   7326 HZ        -28.3740    6.9680    7.7470 ha       458 PS       0.124800
   7327 HE2       -28.4040    6.5680    5.1970 ha       458 PS       0.105800
   7328 HD2       -26.3840    6.1280    3.9870 ha       458 PS       0.124600
   7329 C2        -23.3840    7.1780    3.9970 c3       459 PS       0.031000
   7330 C1        -23.4440    8.5380    4.7070 c3       459 PS       0.000400
   7331 CG        -22.5640    8.6080    5.9270 ca       459 PS       0.250900
   7332 CD1       -23.0840    8.9380    7.1670 ca       459 PS      -0.270200
   7333 CE1       -22.2140    9.1980    8.2470 ca       459 PS      -0.050500
   7334 CZ        -20.8240    8.9880    8.0870 ca       459 PS      -0.188800
   7335 CE2       -20.3240    8.6380    6.8370 ca       459 PS      -0.050500
   7336 CD2       -21.1640    8.4780    5.7470 ca       459 PS      -0.270200
   7337 H21       -22.3540    6.9880    3.6670 hc       459 PS      -0.016200
   7338 H22       -23.8740    7.2280    3.0270 hc       459 PS      -0.016200
   7339 H1        -24.4940    8.6580    4.9870 hc       459 PS      -0.005300
   7340 HD1       -24.1640    8.8780    7.2470 ha       459 PS       0.124600
   7341 HE1       -22.6040    9.3480    9.2470 ha       459 PS       0.105800
   7342 HZ        -20.1140    8.9680    8.9070 ha       459 PS       0.124800
   7343 HE2       -19.2740    8.3680    6.8170 ha       459 PS       0.105800
   7344 HD2       -20.6440    8.2980    4.8170 ha       459 PS       0.124600
   7345 C2        -22.9740    9.6580    3.6570 c3       460 PS       0.031000
   7346 C1        -23.9640    9.9780    2.5270 c3       460 PS       0.000400
   7347 CG        -25.3340   10.3180    3.1770 ca       460 PS       0.250900
   7348 CD1       -25.5740   11.5980    3.7070 ca       460 PS      -0.270200
   7349 CE1       -26.8540   12.1080    4.0470 ca       460 PS      -0.050500
   7350 CZ        -27.9040   11.1180    4.1470 ca       460 PS      -0.188800
   7351 CE2       -27.6640    9.7880    3.7670 ca       460 PS      -0.050500
   7352 CD2       -26.4240    9.4280    3.1470 ca       460 PS      -0.270200
   7353 H21       -22.8240   10.5680    4.2470 hc       460 PS      -0.016200
   7354 H22       -21.9440    9.4680    3.3270 hc       460 PS      -0.016200
   7355 H1        -24.1140    9.0680    1.9270 hc       460 PS      -0.005300
   7356 HD1       -24.8040   12.3580    3.6570 ha       460 PS       0.124600
   7357 HE1       -26.8540   13.1180    4.4270 ha       460 PS       0.105800
   7358 HZ        -28.8240   11.4580    4.5970 ha       460 PS       0.124800
   7359 HE2       -28.5440    9.1480    3.7670 ha       460 PS       0.105800
   7360 HD2       -26.2340    8.5180    2.5770 ha       460 PS       0.124600
   7361 C2        -23.5340   11.0580    1.5470 c3       461 PS       0.031000
   7362 C1        -24.4240   11.3080    0.2770 c3       461 PS       0.000400
   7363 CG        -24.6540   10.0380   -0.4930 ca       461 PS       0.250900
   7364 CD1       -25.8840    9.6280   -0.9330 ca       461 PS      -0.270200
   7365 CE1       -26.0340    8.4280   -1.6230 ca       461 PS      -0.050500
   7366 CZ        -24.8940    7.6480   -1.7730 ca       461 PS      -0.188800
   7367 CE2       -23.6340    8.0480   -1.3330 ca       461 PS      -0.050500
   7368 CD2       -23.5440    9.3080   -0.8030 ca       461 PS      -0.270200
   7369 H21       -23.3640   12.0080    2.0770 hc       461 PS      -0.016200
   7370 H22       -22.4840   10.9080    1.2370 hc       461 PS      -0.016200
   7371 H1        -25.3340   11.7980    0.6270 hc       461 PS      -0.005300
   7372 HD1       -26.7540   10.2580   -0.7530 ha       461 PS       0.124600
   7373 HE1       -26.9540    8.0080   -2.0430 ha       461 PS       0.105800
   7374 HZ        -24.8440    6.6880   -2.2730 ha       461 PS       0.124800
   7375 HE2       -22.7740    7.3880   -1.4130 ha       461 PS       0.105800
   7376 HD2       -22.5340    9.5280   -0.4830 ha       461 PS       0.124600
   7377 C2        -23.8040   12.3280   -0.6230 c3       462 PS       0.031000
   7378 C1        -23.5840   13.7880   -0.1730 c3       462 PS       0.000400
   7379 CG        -24.7840   14.3580    0.7270 ca       462 PS       0.250900
   7380 CD1       -24.4240   15.1080    1.8770 ca       462 PS      -0.270200
   7381 CE1       -25.4140   15.6080    2.7270 ca       462 PS      -0.050500
   7382 CZ        -26.7740   15.3080    2.4670 ca       462 PS      -0.188800
   7383 CE2       -27.1240   14.5780    1.3170 ca       462 PS      -0.050500
   7384 CD2       -26.1440   14.0680    0.4870 ca       462 PS      -0.270200
   7385 H21       -22.8840   11.9780   -1.1030 hc       462 PS      -0.016200
   7386 H22       -24.5340   12.4280   -1.4330 hc       462 PS      -0.016200
   7387 H1        -22.6440   13.9280    0.3670 hc       462 PS      -0.005300
   7388 HD1       -23.3640   15.2380    2.0470 ha       462 PS       0.124600
   7389 HE1       -25.1740   16.0780    3.6770 ha       462 PS       0.105800
   7390 HZ        -27.5640   15.5980    3.1570 ha       462 PS       0.124800
   7391 HE2       -28.1840   14.4180    1.1970 ha       462 PS       0.105800
   7392 HD2       -26.3440   13.4480   -0.3830 ha       462 PS       0.124600
   7393 C2        -23.4240   14.5980   -1.4830 c3       463 PS       0.031000
   7394 C1        -23.1240   16.1280   -1.4430 c3       463 PS       0.000400
   7395 CG        -21.9540   16.4980   -2.4830 ca       463 PS       0.250900
   7396 CD1       -20.6440   16.2080   -2.1830 ca       463 PS      -0.270200
   7397 CE1       -19.6440   16.5680   -3.0530 ca       463 PS      -0.050500
   7398 CZ        -19.8340   17.1680   -4.2830 ca       463 PS      -0.188800
   7399 CE2       -21.1740   17.4280   -4.6530 ca       463 PS      -0.050500
   7400 CD2       -22.2140   17.0980   -3.7530 ca       463 PS      -0.270200
   7401 H21       -22.5340   14.1780   -1.9630 hc       463 PS      -0.016200
   7402 H22       -24.3240   14.4180   -2.0830 hc       463 PS      -0.016200
   7403 H1        -22.8540   16.3780   -0.4130 hc       463 PS      -0.005300
   7404 HD1       -20.3740   15.7980   -1.2130 ha       463 PS       0.124600
   7405 HE1       -18.6640   16.2280   -2.7330 ha       463 PS       0.105800
   7406 HZ        -19.0340   17.4780   -4.9530 ha       463 PS       0.124800
   7407 HE2       -21.4040   17.9280   -5.5830 ha       463 PS       0.105800
   7408 HD2       -23.2440   17.2780   -4.0430 ha       463 PS       0.124600
   7409 C2        -24.4640   16.9580   -1.6830 c3       464 PS       0.031000
   7410 C1        -24.1440   18.5680   -1.4630 c3       464 PS       0.000400
   7411 CG        -24.2240   18.9180   -0.0030 ca       464 PS       0.250900
   7412 CD1       -23.0440   19.0880    0.6970 ca       464 PS      -0.270200
   7413 CE1       -23.0340   19.1280    2.0670 ca       464 PS      -0.050500
   7414 CZ        -24.1940   19.0080    2.8170 ca       464 PS      -0.188800
   7415 CE2       -25.4440   18.8980    2.1370 ca       464 PS      -0.050500
   7416 CD2       -25.4640   18.8580    0.7270 ca       464 PS      -0.270200
   7417 H21       -24.8340   16.7080   -2.6830 hc       464 PS      -0.016200
   7418 H22       -25.2640   16.6080   -1.0130 hc       464 PS      -0.016200
   7419 H1        -23.0840   18.7680   -1.6730 hc       464 PS      -0.005300
   7420 HD1       -22.0840   19.0880    0.1970 ha       464 PS       0.124600
   7421 HE1       -22.0940   19.0980    2.6170 ha       464 PS       0.105800
   7422 HZ        -24.1540   18.9780    3.9070 ha       464 PS       0.124800
   7423 HE2       -26.4040   18.7680    2.6370 ha       464 PS       0.105800
   7424 HD2       -26.3740   18.7780    0.1470 ha       464 PS       0.124600
   7425 C2        -25.1040   19.4980   -2.3230 c3       465 PS       0.031000
   7426 C1        -24.3940   20.8780   -2.6530 c3       465 PS       0.000400
   7427 CG        -24.2240   21.6980   -1.4230 ca       465 PS       0.250900
   7428 CD1       -22.9340   21.9180   -0.8130 ca       465 PS      -0.270200
   7429 CE1       -22.7940   22.7980    0.3270 ca       465 PS      -0.050500
   7430 CZ        -23.9640   23.1580    1.0270 ca       465 PS      -0.188800
   7431 CE2       -25.2240   22.8080    0.4970 ca       465 PS      -0.050500
   7432 CD2       -25.3840   22.1980   -0.7430 ca       465 PS      -0.270200
   7433 H21       -25.2140   19.0880   -3.3330 hc       465 PS      -0.016200
   7434 H22       -26.1440   19.5680   -2.0030 hc       465 PS      -0.016200
   7435 H1        -23.4340   20.6780   -3.1430 hc       465 PS      -0.005300
   7436 HD1       -22.0440   21.5180   -1.2930 ha       465 PS       0.124600
   7437 HE1       -21.8040   23.1480    0.6270 ha       465 PS       0.105800
   7438 HZ        -24.0140   23.9080    1.8170 ha       465 PS       0.124800
   7439 HE2       -26.1440   23.1980    0.9270 ha       465 PS       0.105800
   7440 HD2       -26.3940   22.0980   -1.1330 ha       465 PS       0.124600
   7441 C2        -25.1240   21.8080   -3.7030 c3       466 PS       0.031000
   7442 C1        -24.3140   22.4580   -4.8530 c3       466 PS       0.000400
   7443 CG        -23.7940   21.3880   -5.9030 ca       466 PS       0.250900
   7444 CD1       -24.7140   20.8080   -6.7330 ca       466 PS      -0.270200
   7445 CE1       -24.3840   19.8380   -7.6630 ca       466 PS      -0.050500
   7446 CZ        -23.0840   19.4980   -7.8030 ca       466 PS      -0.188800
   7447 CE2       -22.0840   20.1280   -7.0030 ca       466 PS      -0.050500
   7448 CD2       -22.4440   21.0080   -6.0430 ca       466 PS      -0.270200
   7449 H21       -25.8240   21.1980   -4.2930 hc       466 PS      -0.016200
   7450 H22       -25.7840   22.5380   -3.2230 hc       466 PS      -0.016200
   7451 H1        -24.9340   23.1480   -5.4330 hc       466 PS      -0.005300
   7452 HD1       -25.7740   21.0280   -6.6130 ha       466 PS       0.124600
   7453 HE1       -25.1540   19.4280   -8.3030 ha       466 PS       0.105800
   7454 HZ        -22.8140   18.6780   -8.4630 ha       466 PS       0.124800
   7455 HE2       -21.0640   19.7380   -7.0130 ha       466 PS       0.105800
   7456 HD2       -21.7140   21.4480   -5.3630 ha       466 PS       0.124600
   7457 C2        -23.1840   23.4280   -4.1530 c3       467 PS       0.031000
   7458 C1        -22.3940   24.2680   -5.2930 c3       467 PS       0.000400
   7459 CG        -23.2040   25.1980   -6.1530 ca       467 PS       0.250900
   7460 CD1       -24.3840   25.7680   -5.6530 ca       467 PS      -0.270200
   7461 CE1       -25.1540   26.6480   -6.4730 ca       467 PS      -0.050500
   7462 CZ        -24.6340   27.0780   -7.7230 ca       467 PS      -0.188800
   7463 CE2       -23.4140   26.5080   -8.2030 ca       467 PS      -0.050500
   7464 CD2       -22.7440   25.5880   -7.4030 ca       467 PS      -0.270200
   7465 H21       -23.7040   24.0980   -3.4630 hc       467 PS      -0.016200
   7466 H22       -22.5440   22.8480   -3.4730 hc       467 PS      -0.016200
   7467 H1        -21.9740   23.5480   -5.9930 hc       467 PS      -0.005300
   7468 HD1       -24.7740   25.4880   -4.6730 ha       467 PS       0.124600
   7469 HE1       -26.1540   26.8980   -6.1430 ha       467 PS       0.105800
   7470 HZ        -25.1940   27.8080   -8.2930 ha       467 PS       0.124800
   7471 HE2       -22.9740   26.7880   -9.1530 ha       467 PS       0.105800
   7472 HD2       -21.7940   25.2480   -7.8030 ha       467 PS       0.124600
   7473 C2        -21.2240   25.0380   -4.5930 c3       468 PS       0.031000
   7474 C1        -19.9540   25.4280   -5.4630 c3       468 PS       0.000400
   7475 CG        -19.4240   24.1880   -6.1130 ca       468 PS       0.250900
   7476 CD1       -19.5440   23.9980   -7.5130 ca       468 PS      -0.270200
   7477 CE1       -19.2440   22.7180   -8.0330 ca       468 PS      -0.050500
   7478 CZ        -18.7540   21.6580   -7.2730 ca       468 PS      -0.188800
   7479 CE2       -18.6640   21.8680   -5.9030 ca       468 PS      -0.050500
   7480 CD2       -18.9640   23.1080   -5.3330 ca       468 PS      -0.270200
   7481 H21       -21.5940   25.9980   -4.2130 hc       468 PS      -0.016200
   7482 H22       -20.8640   24.3680   -3.8030 hc       468 PS      -0.016200
   7483 H1        -20.2040   26.1380   -6.2630 hc       468 PS      -0.005300
   7484 HD1       -19.8540   24.7580   -8.2330 ha       468 PS       0.124600
   7485 HE1       -19.3140   22.5380   -9.1030 ha       468 PS       0.105800
   7486 HZ        -18.6240   20.6780   -7.7330 ha       468 PS       0.124800
   7487 HE2       -18.2540   21.0880   -5.2730 ha       468 PS       0.105800
   7488 HD2       -18.7840   23.3480   -4.2930 ha       468 PS       0.124600
   7489 C2        -18.9540   26.1780   -4.5930 c3       469 PS       0.031000
   7490 C1        -17.7140   26.7780   -5.2830 c3       469 PS       0.000400
   7491 CG        -16.9640   25.6880   -6.1230 ca       469 PS       0.250900
   7492 CD1       -16.9440   25.8380   -7.5330 ca       469 PS      -0.270200
   7493 CE1       -16.5240   24.8480   -8.3530 ca       469 PS      -0.050500
   7494 CZ        -16.0140   23.6680   -7.8530 ca       469 PS      -0.188800
   7495 CE2       -15.9440   23.5480   -6.4330 ca       469 PS      -0.050500
   7496 CD2       -16.3840   24.5580   -5.5730 ca       469 PS      -0.270200
   7497 H21       -19.4240   26.9780   -4.0130 hc       469 PS      -0.016200
   7498 H22       -18.5440   25.4580   -3.8730 hc       469 PS      -0.016200
   7499 H1        -18.1240   27.4880   -6.0130 hc       469 PS      -0.005300
   7500 HD1       -17.4140   26.7680   -7.8530 ha       469 PS       0.124600
   7501 HE1       -16.5140   24.9580   -9.4330 ha       469 PS       0.105800
   7502 HZ        -15.6640   22.8180   -8.4330 ha       469 PS       0.124800
   7503 HE2       -15.4940   22.6680   -5.9630 ha       469 PS       0.105800
   7504 HD2       -16.2540   24.3580   -4.5130 ha       469 PS       0.124600
   7505 C2        -16.8040   27.5080   -4.3430 c3       470 PS       0.031000
   7506 C1        -15.6340   28.3880   -5.0530 c3       470 PS       0.000400
   7507 CG        -16.2840   29.6280   -5.7030 ca       470 PS       0.250900
   7508 CD1       -17.0540   30.4880   -4.9530 ca       470 PS      -0.270200
   7509 CE1       -17.6440   31.6580   -5.5230 ca       470 PS      -0.050500
   7510 CZ        -17.5440   31.8180   -6.9330 ca       470 PS      -0.188800
   7511 CE2       -16.9140   30.8380   -7.7730 ca       470 PS      -0.050500
   7512 CD2       -16.2540   29.7680   -7.1830 ca       470 PS      -0.270200
   7513 H21       -17.3240   28.1580   -3.6330 hc       470 PS      -0.016200
   7514 H22       -16.3240   26.7780   -3.6730 hc       470 PS      -0.016200
   7515 H1        -15.1240   27.7080   -5.7430 hc       470 PS      -0.005300
   7516 HD1       -17.1140   30.1380   -3.9330 ha       470 PS       0.124600
   7517 HE1       -18.3640   32.2680   -4.9930 ha       470 PS       0.105800
   7518 HZ        -18.0740   32.6880   -7.3130 ha       470 PS       0.124800
   7519 HE2       -16.8440   31.0380   -8.8330 ha       470 PS       0.105800
   7520 HD2       -15.6640   29.0980   -7.8030 ha       470 PS       0.124600
   7521 C2        -14.5840   28.8580   -4.0230 c3       471 PS       0.031000
   7522 C1        -13.4240   29.7780   -4.5430 c3       471 PS       0.000400
   7523 CG        -12.7240   29.2980   -5.8030 ca       471 PS       0.250900
   7524 CD1       -12.4440   30.1780   -6.8730 ca       471 PS      -0.270200
   7525 CE1       -11.9040   29.7080   -8.0830 ca       471 PS      -0.050500
   7526 CZ        -11.4740   28.3780   -8.2030 ca       471 PS      -0.188800
   7527 CE2       -11.6340   27.5180   -7.0930 ca       471 PS      -0.050500
   7528 CD2       -12.2140   27.9480   -5.8730 ca       471 PS      -0.270200
   7529 H21       -15.1740   29.5080   -3.3630 hc       471 PS      -0.016200
   7530 H22       -14.1640   28.0280   -3.4530 hc       471 PS      -0.016200
   7531 H1        -13.8240   30.7180   -4.9430 hc       471 PS      -0.005300
   7532 HD1       -12.6940   31.2380   -6.8730 ha       471 PS       0.124600
   7533 HE1       -11.6740   30.3680   -8.9130 ha       471 PS       0.105800
   7534 HZ        -11.0640   27.9280   -9.1030 ha       471 PS       0.124800
   7535 HE2       -11.4940   26.4680   -7.2930 ha       471 PS       0.105800
   7536 HD2       -12.3840   27.2480   -5.0630 ha       471 PS       0.124600
   7537 C2        -12.4540   30.0980   -3.3830 c3       472 PS       0.031000
   7538 C1        -11.3340   31.1280   -3.6830 c3       472 PS       0.000400
   7539 CG        -11.7640   32.6680   -3.4830 ca       472 PS       0.250900
   7540 CD1       -11.9740   33.4880   -4.5530 ca       472 PS      -0.270200
   7541 CE1       -12.4040   34.8080   -4.2330 ca       472 PS      -0.050500
   7542 CZ        -12.6140   35.3280   -2.9230 ca       472 PS      -0.188800
   7543 CE2       -12.4540   34.4180   -1.8630 ca       472 PS      -0.050500
   7544 CD2       -11.9840   33.1680   -2.1130 ca       472 PS      -0.270200
   7545 H21       -12.9440   30.4380   -2.4630 hc       472 PS      -0.016200
   7546 H22       -11.9240   29.1580   -3.1730 hc       472 PS      -0.016200
   7547 H1        -11.0740   30.9680   -4.7430 hc       472 PS      -0.005300
   7548 HD1       -11.8140   33.0980   -5.5530 ha       472 PS       0.124600
   7549 HE1       -12.6640   35.4480   -5.0730 ha       472 PS       0.105800
   7550 HZ        -13.0840   36.2980   -2.8630 ha       472 PS       0.124800
   7551 HE2       -12.4540   34.7780   -0.8430 ha       472 PS       0.105800
   7552 HD2       -11.7040   32.5380   -1.2730 ha       472 PS       0.124600
   7553 C2         -9.9440   30.8780   -3.0230 c3       473 PS       0.031000
   7554 C1         -8.8740   31.7980   -3.6630 c3       473 PS       0.000400
   7555 CG         -8.7640   31.3480   -5.1830 ca       473 PS       0.250900
   7556 CD1        -9.1940   32.2480   -6.1530 ca       473 PS      -0.270200
   7557 CE1        -9.1540   31.9680   -7.5630 ca       473 PS      -0.050500
   7558 CZ         -8.7440   30.6780   -7.8930 ca       473 PS      -0.188800
   7559 CE2        -8.2640   29.7880   -6.9030 ca       473 PS      -0.050500
   7560 CD2        -8.1840   30.1280   -5.5730 ca       473 PS      -0.270200
   7561 H21       -10.0140   31.0680   -1.9430 hc       473 PS      -0.016200
   7562 H22        -9.6940   29.8380   -3.2630 hc       473 PS      -0.016200
   7563 H1         -9.1340   32.8580   -3.7730 hc       473 PS      -0.005300
   7564 HD1        -9.5640   33.2080   -5.8130 ha       473 PS       0.124600
   7565 HE1        -9.5640   32.5680   -8.3730 ha       473 PS       0.105800
   7566 HZ         -8.5440   30.3480   -8.9030 ha       473 PS       0.124800
   7567 HE2        -7.8240   28.8380   -7.2330 ha       473 PS       0.105800
   7568 HD2        -7.8340   29.4780   -4.7730 ha       473 PS       0.124600
   7569 C2         -7.4940   31.7880   -2.9730 c3       474 PS       0.031000
   7570 C1         -6.5540   32.9080   -3.5830 c3       474 PS       0.000400
   7571 CG         -5.9240   32.7180   -4.9830 ca       474 PS       0.250900
   7572 CD1        -6.2140   33.5380   -6.0830 ca       474 PS      -0.270200
   7573 CE1        -5.6540   33.2180   -7.2930 ca       474 PS      -0.050500
   7574 CZ         -4.8240   32.1080   -7.5030 ca       474 PS      -0.188800
   7575 CE2        -4.6940   31.1780   -6.4630 ca       474 PS      -0.050500
   7576 CD2        -5.1140   31.5780   -5.1530 ca       474 PS      -0.270200
   7577 H21        -7.6840   31.9880   -1.9130 hc       474 PS      -0.016200
   7578 H22        -6.9340   30.8580   -3.0930 hc       474 PS      -0.016200
   7579 H1         -7.1640   33.8080   -3.7030 hc       474 PS      -0.005300
   7580 HD1        -6.8040   34.4280   -5.8830 ha       474 PS       0.124600
   7581 HE1        -5.8440   33.9380   -8.0930 ha       474 PS       0.105800
   7582 HZ         -4.4840   31.8580   -8.5030 ha       474 PS       0.124800
   7583 HE2        -4.1840   30.2280   -6.5330 ha       474 PS       0.105800
   7584 HD2        -4.9940   30.8880   -4.3230 ha       474 PS       0.124600
   7585 C2         -5.3140   33.3080   -2.6530 c3       475 PS       0.031000
   7586 C1         -5.6640   33.7280   -1.1730 c3       475 PS       0.000400
   7587 CG         -6.6440   34.9380   -1.1530 ca       475 PS       0.250900
   7588 CD1        -6.1540   36.2580   -1.3230 ca       475 PS      -0.270200
   7589 CE1        -7.0140   37.3580   -1.1330 ca       475 PS      -0.050500
   7590 CZ         -8.4240   37.1680   -0.9830 ca       475 PS      -0.188800
   7591 CE2        -8.9440   35.8280   -0.8330 ca       475 PS      -0.050500
   7592 CD2        -8.0540   34.7280   -0.9030 ca       475 PS      -0.270200
   7593 H21        -4.7040   32.3980   -2.5930 hc       475 PS      -0.016200
   7594 H22        -4.6940   34.0380   -3.1830 hc       475 PS      -0.016200
   7595 H1         -6.1740   32.9280   -0.6230 hc       475 PS      -0.005300
   7596 HD1        -5.0840   36.4580   -1.4330 ha       475 PS       0.124600
   7597 HE1        -6.7140   38.3780   -1.3230 ha       475 PS       0.105800
   7598 HZ         -9.0640   38.0380   -0.9030 ha       475 PS       0.124800
   7599 HE2        -9.9940   35.5680   -0.8030 ha       475 PS       0.105800
   7600 HD2        -8.4240   33.7280   -0.7030 ha       475 PS       0.124600
   7601 C2         -4.3640   33.9980   -0.4330 c3       476 PS       0.031000
   7602 C1         -3.5440   32.7580   -0.0730 c3       476 PS       0.000400
   7603 CG         -4.2640   31.9280    0.9970 ca       476 PS       0.250900
   7604 CD1        -4.8840   30.7280    0.6470 ca       476 PS      -0.270200
   7605 CE1        -5.3340   29.8580    1.6570 ca       476 PS      -0.050500
   7606 CZ         -5.3540   30.2480    3.0070 ca       476 PS      -0.188800
   7607 CE2        -4.8740   31.5380    3.3670 ca       476 PS      -0.050500
   7608 CD2        -4.3640   32.3680    2.3370 ca       476 PS      -0.270200
   7609 H21        -3.7340   34.6480   -1.0630 hc       476 PS      -0.016200
   7610 H22        -4.6640   34.5880    0.4370 hc       476 PS      -0.016200
   7611 H1         -3.4140   32.1880   -1.0030 hc       476 PS      -0.005300
   7612 HD1        -5.0140   30.4380   -0.3930 ha       476 PS       0.124600
   7613 HE1        -5.7040   28.8780    1.3770 ha       476 PS       0.105800
   7614 HZ         -5.7340   29.5780    3.7670 ha       476 PS       0.124800
   7615 HE2        -4.9440   31.8980    4.3870 ha       476 PS       0.105800
   7616 HD2        -3.9340   33.3180    2.6470 ha       476 PS       0.124600
   7617 C2         -2.1240   33.1080    0.4970 c3       477 PS       0.031000
   7618 C1         -1.3040   31.8280    0.9370 c3       477 PS       0.000400
   7619 CG         -1.7440   30.4680    0.3870 ca       477 PS       0.250900
   7620 CD1        -2.1040   29.4080    1.2770 ca       477 PS      -0.270200
   7621 CE1        -2.5540   28.1780    0.7770 ca       477 PS      -0.050500
   7622 CZ         -2.5440   27.9380   -0.5930 ca       477 PS      -0.188800
   7623 CE2        -2.1340   28.9380   -1.4630 ca       477 PS      -0.050500
   7624 CD2        -1.7740   30.1980   -1.0330 ca       477 PS      -0.270200
   7625 H21        -1.6240   33.4380   -0.4230 hc       477 PS      -0.016200
   7626 H22        -2.1440   33.9080    1.2470 hc       477 PS      -0.016200
   7627 H1         -1.5440   31.8180    2.0070 hc       477 PS      -0.005300
   7628 HD1        -2.0040   29.5080    2.3470 ha       477 PS       0.124600
   7629 HE1        -2.7740   27.4580    1.5670 ha       477 PS       0.105800
   7630 HZ         -2.6740   26.8980   -0.9030 ha       477 PS       0.124800
   7631 HE2        -2.0540   28.8480   -2.5430 ha       477 PS       0.105800
   7632 HD2        -1.4940   30.9680   -1.7530 ha       477 PS       0.124600
   7633 C2          0.1960   32.0680    0.6970 c3       478 PS       0.031000
   7634 C1          1.1760   31.1480    1.4270 c3       478 PS       0.000400
   7635 CG          1.3160   29.7880    0.7070 ca       478 PS       0.250900
   7636 CD1         1.0460   28.5780    1.4670 ca       478 PS      -0.270200
   7637 CE1         1.2260   27.3180    0.8770 ca       478 PS      -0.050500
   7638 CZ          1.7360   27.1980   -0.3730 ca       478 PS      -0.188800
   7639 CE2         2.0860   28.3480   -1.0830 ca       478 PS      -0.050500
   7640 CD2         1.9160   29.6380   -0.5130 ca       478 PS      -0.270200
   7641 H21         0.4060   32.1880   -0.3630 hc       478 PS      -0.016200
   7642 H22         0.3660   33.1180    0.9970 hc       478 PS      -0.016200
   7643 H1          0.7160   31.0580    2.4170 hc       478 PS      -0.005300
   7644 HD1         0.6160   28.7180    2.4570 ha       478 PS       0.124600
   7645 HE1         1.0360   26.4080    1.4470 ha       478 PS       0.105800
   7646 HZ          1.9060   26.1880   -0.7430 ha       478 PS       0.124800
   7647 HE2         2.5660   28.1880   -2.0430 ha       478 PS       0.105800
   7648 HD2         2.2460   30.4980   -1.0830 ha       478 PS       0.124600
   7649 C2          2.5360   31.9280    1.5870 c3       479 PS       0.031000
   7650 C1          3.4860   31.2980    2.6470 c3       479 PS       0.000400
   7651 CG          4.0860   29.8880    2.4170 ca       479 PS       0.250900
   7652 CD1         4.1060   28.9980    3.4870 ca       479 PS      -0.270200
   7653 CE1         4.7360   27.6780    3.2870 ca       479 PS      -0.050500
   7654 CZ          5.3360   27.3980    2.0370 ca       479 PS      -0.188800
   7655 CE2         5.4160   28.4080    1.0270 ca       479 PS      -0.050500
   7656 CD2         4.7460   29.6080    1.2370 ca       479 PS      -0.270200
   7657 H21         3.1160   32.0880    0.6670 hc       479 PS      -0.016200
   7658 H22         2.3460   32.9480    1.9370 hc       479 PS      -0.016200
   7659 H1          2.9060   31.2880    3.5870 hc       479 PS      -0.005300
   7660 HD1         3.7060   29.3380    4.4270 ha       479 PS       0.124600
   7661 HE1         4.7960   27.0780    4.1970 ha       479 PS       0.105800
   7662 HZ          5.9360   26.4980    1.9670 ha       479 PS       0.124800
   7663 HE2         5.9560   28.2680    0.0970 ha       479 PS       0.105800
   7664 HD2         4.8060   30.3780    0.4770 ha       479 PS       0.124600
   7665 C2          4.6560   32.1880    2.9170 c3       480 PS       0.031000
   7666 C1          5.0760   31.8680    4.3970 c3       480 PS       0.000400
   7667 CG          5.3460   33.0380    5.3370 ca       480 PS       0.250900
   7668 CD1         5.9460   34.2280    4.7870 ca       480 PS      -0.270200
   7669 CE1         6.2960   35.2880    5.5570 ca       480 PS      -0.050500
   7670 CZ          6.0960   35.3080    6.9570 ca       480 PS      -0.188800
   7671 CE2         5.4860   34.1380    7.5470 ca       480 PS      -0.050500
   7672 CD2         5.0960   33.0480    6.7370 ca       480 PS      -0.270200
   7673 H21         5.4160   31.8780    2.1870 hc       480 PS      -0.016200
   7674 H22         4.4260   33.2480    2.7370 hc       480 PS      -0.016200
   7675 H1          5.9060   31.1480    4.3970 hc       480 PS      -0.005300
   7676 HD1         6.3660   34.2080    3.7870 ha       480 PS       0.124600
   7677 HE1         6.9460   36.0380    5.1070 ha       480 PS       0.105800
   7678 HZ          6.4460   36.1980    7.4670 ha       480 PS       0.124800
   7679 HE2         5.2360   34.0680    8.5970 ha       480 PS       0.105800
   7680 HD2         4.6860   32.2180    7.3170 ha       480 PS       0.124600
   7681 C2        -23.4140   18.8180    7.3170 c3       481 PS       0.031000
   7682 C1        -23.2040   17.2080    7.1970 c3       481 PS       0.000400
   7683 CG        -24.5340   16.5180    6.9870 ca       481 PS       0.250900
   7684 CD1       -24.7140   15.3080    7.5770 ca       481 PS      -0.270200
   7685 CE1       -25.8740   14.5980    7.3270 ca       481 PS      -0.050500
   7686 CZ        -26.9440   15.1580    6.6170 ca       481 PS      -0.188800
   7687 CE2       -26.8340   16.3780    5.9670 ca       481 PS      -0.050500
   7688 CD2       -25.6240   17.0880    6.2070 ca       481 PS      -0.270200
   7689 H21       -22.5240   19.3880    7.6170 hc       481 PS      -0.016200
   7690 H22       -23.7440   19.1480    6.3270 hc       481 PS      -0.016200
   7691 H1        -22.7540   16.9480    8.1670 hc       481 PS      -0.005300
   7692 HD1       -23.8640   14.7880    8.0070 ha       481 PS       0.124600
   7693 HE1       -25.8740   13.5980    7.7570 ha       481 PS       0.105800
   7694 HZ        -27.7840   14.4980    6.4070 ha       481 PS       0.124800
   7695 HE2       -27.5840   16.7280    5.2670 ha       481 PS       0.105800
   7696 HD2       -25.5940   18.1080    5.8370 ha       481 PS       0.124600
   7697 C2        -22.2740   16.7980    6.0270 c3       482 PS       0.031000
   7698 C1        -21.0340   17.6080    5.7670 c3       482 PS       0.000400
   7699 CG        -19.9740   17.4380    6.8670 ca       482 PS       0.250900
   7700 CD1       -19.4040   16.1780    7.1870 ca       482 PS      -0.270200
   7701 CE1       -18.1640   16.0780    7.8670 ca       482 PS      -0.050500
   7702 CZ        -17.6140   17.2680    8.4070 ca       482 PS      -0.188800
   7703 CE2       -18.2040   18.5280    8.1970 ca       482 PS      -0.050500
   7704 CD2       -19.3640   18.5680    7.3870 ca       482 PS      -0.270200
   7705 H21       -22.1040   15.7280    5.9070 hc       482 PS      -0.016200
   7706 H22       -22.9040   16.9780    5.1470 hc       482 PS      -0.016200
   7707 H1        -21.3940   18.6280    5.5870 hc       482 PS      -0.005300
   7708 HD1       -19.7840   15.2480    6.7670 ha       482 PS       0.124600
   7709 HE1       -17.6140   15.1380    7.8870 ha       482 PS       0.105800
   7710 HZ        -16.7140   17.2280    9.0070 ha       482 PS       0.124800
   7711 HE2       -17.7640   19.3980    8.6670 ha       482 PS       0.105800
   7712 HD2       -19.7040   19.5780    7.1470 ha       482 PS       0.124600
   7713 C2        -20.3740   17.1480    4.4170 c3       483 PS       0.031000
   7714 C1        -19.1040   17.9180    4.0870 c3       483 PS       0.000400
   7715 CG        -18.2540   17.1780    3.0470 ca       483 PS       0.250900
   7716 CD1       -18.8040   16.6580    1.8670 ca       483 PS      -0.270200
   7717 CE1       -18.0040   16.0880    0.8770 ca       483 PS      -0.050500
   7718 CZ        -16.6140   15.9180    1.1270 ca       483 PS      -0.188800
   7719 CE2       -16.1640   16.2680    2.3770 ca       483 PS      -0.050500
   7720 CD2       -16.9240   16.9380    3.2770 ca       483 PS      -0.270200
   7721 H21       -20.0040   16.1180    4.5370 hc       483 PS      -0.016200
   7722 H22       -21.0540   17.0380    3.5670 hc       483 PS      -0.016200
   7723 H1        -18.5240   18.0180    5.0170 hc       483 PS      -0.005300
   7724 HD1       -19.8540   16.7180    1.5870 ha       483 PS       0.124600
   7725 HE1       -18.4440   15.7080   -0.0330 ha       483 PS       0.105800
   7726 HZ        -15.9340   15.5380    0.3570 ha       483 PS       0.124800
   7727 HE2       -15.1240   16.0980    2.6570 ha       483 PS       0.105800
   7728 HD2       -16.4140   17.3980    4.1270 ha       483 PS       0.124600
   7729 C2        -19.4540   19.2780    3.4170 c3       484 PS       0.031000
   7730 C1        -18.3440   20.3780    3.6070 c3       484 PS       0.000400
   7731 CG        -18.5640   21.1480    4.9170 ca       484 PS       0.250900
   7732 CD1       -17.5840   20.9780    5.9670 ca       484 PS      -0.270200
   7733 CE1       -17.7940   21.6480    7.2270 ca       484 PS      -0.050500
   7734 CZ        -18.8440   22.5680    7.2970 ca       484 PS      -0.188800
   7735 CE2       -19.7440   22.8080    6.1670 ca       484 PS      -0.050500
   7736 CD2       -19.6040   22.0180    5.0370 ca       484 PS      -0.270200
   7737 H21       -19.5740   19.0980    2.3470 hc       484 PS      -0.016200
   7738 H22       -20.3540   19.7780    3.7970 hc       484 PS      -0.016200
   7739 H1        -17.3740   19.8680    3.5870 hc       484 PS      -0.005300
   7740 HD1       -16.7940   20.2480    5.8170 ha       484 PS       0.124600
   7741 HE1       -17.0740   21.5480    8.0370 ha       484 PS       0.105800
   7742 HZ        -19.0640   23.1680    8.1670 ha       484 PS       0.124800
   7743 HE2       -20.5140   23.5680    6.2270 ha       484 PS       0.105800
   7744 HD2       -20.2640   22.1480    4.1870 ha       484 PS       0.124600
   7745 C2        -18.2840   21.3280    2.3670 c3       485 PS       0.031000
   7746 C1        -17.5140   20.6380    1.1670 c3       485 PS       0.000400
   7747 CG        -18.3240   20.8480   -0.1030 ca       485 PS       0.250900
   7748 CD1       -18.8540   19.7880   -0.8330 ca       485 PS      -0.270200
   7749 CE1       -19.5540   19.9680   -2.0430 ca       485 PS      -0.050500
   7750 CZ        -19.7440   21.2580   -2.5730 ca       485 PS      -0.188800
   7751 CE2       -19.2940   22.3080   -1.7730 ca       485 PS      -0.050500
   7752 CD2       -18.7040   22.0880   -0.5430 ca       485 PS      -0.270200
   7753 H21       -19.3340   21.5480    2.1470 hc       485 PS      -0.016200
   7754 H22       -17.8240   22.3080    2.5370 hc       485 PS      -0.016200
   7755 H1        -17.5140   19.5380    1.1570 hc       485 PS      -0.005300
   7756 HD1       -18.5940   18.7880   -0.4930 ha       485 PS       0.124600
   7757 HE1       -19.8740   19.0980   -2.6030 ha       485 PS       0.105800
   7758 HZ        -20.1640   21.4080   -3.5630 ha       485 PS       0.124800
   7759 HE2       -19.4440   23.3480   -2.0530 ha       485 PS       0.105800
   7760 HD2       -18.2340   22.9380   -0.0530 ha       485 PS       0.124600
   7761 C2        -16.0940   21.1280    1.1370 c3       486 PS       0.031000
   7762 C1        -15.0840   20.0780    0.6570 c3       486 PS       0.000400
   7763 CG        -15.2740   19.6480   -0.8030 ca       486 PS       0.250900
   7764 CD1       -15.0040   18.2480   -1.1130 ca       486 PS      -0.270200
   7765 CE1       -15.2640   17.7980   -2.4530 ca       486 PS      -0.050500
   7766 CZ        -15.7840   18.7080   -3.4230 ca       486 PS      -0.188800
   7767 CE2       -15.8440   20.0680   -3.1430 ca       486 PS      -0.050500
   7768 CD2       -15.6540   20.5280   -1.8530 ca       486 PS      -0.270200
   7769 H21       -15.9540   22.1780    0.8370 hc       486 PS      -0.016200
   7770 H22       -15.7840   21.2180    2.1770 hc       486 PS      -0.016200
   7771 H1        -15.2140   19.2580    1.3670 hc       486 PS      -0.005300
   7772 HD1       -14.5640   17.5980   -0.3530 ha       486 PS       0.124600
   7773 HE1       -15.0940   16.7580   -2.7130 ha       486 PS       0.105800
   7774 HZ        -15.9440   18.3380   -4.4330 ha       486 PS       0.124800
   7775 HE2       -16.2540   20.7280   -3.9030 ha       486 PS       0.105800
   7776 HD2       -16.0240   21.5080   -1.5530 ha       486 PS       0.124600
   7777 C2        -13.6140   20.6780    0.8170 c3       487 PS       0.031000
   7778 C1        -12.4440   19.6880    0.4470 c3       487 PS       0.000400
   7779 CG        -11.1140   20.5280    0.2670 ca       487 PS       0.250900
   7780 CD1       -10.3840   20.4080   -0.9530 ca       487 PS      -0.270200
   7781 CE1        -9.2140   21.1980   -1.0530 ca       487 PS      -0.050500
   7782 CZ         -8.6940   22.0380   -0.0030 ca       487 PS      -0.188800
   7783 CE2        -9.5240   22.2280    1.1570 ca       487 PS      -0.050500
   7784 CD2       -10.6340   21.3580    1.2870 ca       487 PS      -0.270200
   7785 H21       -13.4840   21.6280    0.2970 hc       487 PS      -0.016200
   7786 H22       -13.5440   20.8280    1.8970 hc       487 PS      -0.016200
   7787 H1        -12.7140   19.2980   -0.5430 hc       487 PS      -0.005300
   7788 HD1       -10.7140   19.8180   -1.7930 ha       487 PS       0.124600
   7789 HE1        -8.5940   20.9980   -1.9230 ha       487 PS       0.105800
   7790 HZ         -7.8040   22.6380   -0.1230 ha       487 PS       0.124800
   7791 HE2        -9.3140   22.9380    1.9570 ha       487 PS       0.105800
   7792 HD2       -11.2440   21.4880    2.1770 ha       487 PS       0.124600
   7793 C2        -12.1640   18.4880    1.4470 c3       488 PS       0.031000
   7794 C1        -11.1040   17.4680    0.8870 c3       488 PS       0.000400
   7795 CG        -11.5840   16.4780   -0.1730 ca       488 PS       0.250900
   7796 CD1       -10.7540   16.2780   -1.2530 ca       488 PS      -0.270200
   7797 CE1       -11.1340   15.3480   -2.2330 ca       488 PS      -0.050500
   7798 CZ        -12.3440   14.6580   -2.1430 ca       488 PS      -0.188800
   7799 CE2       -13.1840   14.9580   -1.0830 ca       488 PS      -0.050500
   7800 CD2       -12.6940   15.6580    0.0070 ca       488 PS      -0.270200
   7801 H21       -11.8440   18.9480    2.3870 hc       488 PS      -0.016200
   7802 H22       -13.1440   18.0580    1.6870 hc       488 PS      -0.016200
   7803 H1        -10.3740   18.0680    0.3270 hc       488 PS      -0.005300
   7804 HD1        -9.8340   16.8380   -1.3130 ha       488 PS       0.124600
   7805 HE1       -10.5340   15.3180   -3.1430 ha       488 PS       0.105800
   7806 HZ        -12.6740   13.9680   -2.9130 ha       488 PS       0.124800
   7807 HE2       -14.1040   14.3780   -0.9930 ha       488 PS       0.105800
   7808 HD2       -13.2940   15.8280    0.8870 ha       488 PS       0.124600
   7809 C2        -10.4040   16.6080    1.9970 c3       489 PS       0.031000
   7810 C1         -8.9140   17.0780    2.3370 c3       489 PS       0.000400
   7811 CG         -8.0540   17.0880    1.0170 ca       489 PS       0.250900
   7812 CD1        -7.7440   15.7780    0.4870 ca       489 PS      -0.270200
   7813 CE1        -7.0040   15.6280   -0.7030 ca       489 PS      -0.050500
   7814 CZ         -6.6540   16.7380   -1.4530 ca       489 PS      -0.188800
   7815 CE2        -6.9940   17.9780   -0.9330 ca       489 PS      -0.050500
   7816 CD2        -7.6840   18.2180    0.3370 ca       489 PS      -0.270200
   7817 H21       -10.9740   16.4180    2.9170 hc       489 PS      -0.016200
   7818 H22       -10.2840   15.5680    1.6870 hc       489 PS      -0.016200
   7819 H1         -8.4340   16.2880    2.9370 hc       489 PS      -0.005300
   7820 HD1        -8.0040   14.8680    1.0170 ha       489 PS       0.124600
   7821 HE1        -6.7140   14.6180   -0.9830 ha       489 PS       0.105800
   7822 HZ         -6.0640   16.5380   -2.3430 ha       489 PS       0.124800
   7823 HE2        -6.8440   18.8780   -1.5130 ha       489 PS       0.105800
   7824 HD2        -8.0440   19.1880    0.6670 ha       489 PS       0.124600
   7825 C2         -8.8240   18.4380    3.1070 c3       490 PS       0.031000
   7826 C1         -9.4540   18.4480    4.4670 c3       490 PS       0.000400
   7827 CG         -8.6440   17.4580    5.5070 ca       490 PS       0.250900
   7828 CD1        -9.2340   16.2680    6.0170 ca       490 PS      -0.270200
   7829 CE1        -8.5840   15.4280    6.9870 ca       490 PS      -0.050500
   7830 CZ         -7.2540   15.7380    7.3270 ca       490 PS      -0.188800
   7831 CE2        -6.6240   16.8880    6.8370 ca       490 PS      -0.050500
   7832 CD2        -7.3540   17.7180    5.8870 ca       490 PS      -0.270200
   7833 H21        -7.7340   18.5580    3.1970 hc       490 PS      -0.016200
   7834 H22        -9.2040   19.2580    2.4870 hc       490 PS      -0.016200
   7835 H1        -10.4640   18.0680    4.2970 hc       490 PS      -0.005300
   7836 HD1       -10.2740   16.1180    5.7670 ha       490 PS       0.124600
   7837 HE1        -9.1240   14.5080    7.2170 ha       490 PS       0.105800
   7838 HZ         -6.7640   15.0180    7.9770 ha       490 PS       0.124800
   7839 HE2        -5.6040   17.0680    7.1670 ha       490 PS       0.105800
   7840 HD2        -6.8940   18.5980    5.4370 ha       490 PS       0.124600
   7841 C2         -9.6740   19.8080    5.1870 c3       491 PS       0.031000
   7842 C1        -10.4840   19.6780    6.6270 c3       491 PS       0.000400
   7843 CG        -11.9040   19.0680    6.4570 ca       491 PS       0.250900
   7844 CD1       -12.3540   18.1180    7.4070 ca       491 PS      -0.270200
   7845 CE1       -13.6340   17.5580    7.2670 ca       491 PS      -0.050500
   7846 CZ        -14.4040   17.8880    6.1270 ca       491 PS      -0.188800
   7847 CE2       -13.9640   18.8280    5.1570 ca       491 PS      -0.050500
   7848 CD2       -12.7340   19.4780    5.3270 ca       491 PS      -0.270200
   7849 H21        -8.7140   20.3080    5.3570 hc       491 PS      -0.016200
   7850 H22       -10.2040   20.4780    4.4970 hc       491 PS      -0.016200
   7851 H1         -9.9040   18.9880    7.2470 hc       491 PS      -0.005300
   7852 HD1       -11.8340   17.9280    8.3370 ha       491 PS       0.124600
   7853 HE1       -14.0240   16.8980    8.0270 ha       491 PS       0.105800
   7854 HZ        -15.3240   17.3280    6.0370 ha       491 PS       0.124800
   7855 HE2       -14.5040   18.9980    4.2270 ha       491 PS       0.105800
   7856 HD2       -12.4740   20.1480    4.5170 ha       491 PS       0.124600
   7857 C2        -10.5540   20.9880    7.3870 c3       492 PS       0.031000
   7858 C1         -9.5640   22.1480    6.9870 c3       492 PS       0.000400
   7859 CG         -8.0340   21.9280    7.3170 ca       492 PS       0.250900
   7860 CD1        -7.4840   20.7480    7.9270 ca       492 PS      -0.270200
   7861 CE1        -6.0640   20.6080    7.9570 ca       492 PS      -0.050500
   7862 CZ         -5.2440   21.5380    7.3570 ca       492 PS      -0.188800
   7863 CE2        -5.7840   22.5980    6.6470 ca       492 PS      -0.050500
   7864 CD2        -7.1640   22.7780    6.6470 ca       492 PS      -0.270200
   7865 H21       -11.5040   21.5180    7.2270 hc       492 PS      -0.016200
   7866 H22       -10.4340   20.7980    8.4570 hc       492 PS      -0.016200
   7867 H1         -9.6340   22.2880    5.9070 hc       492 PS      -0.005300
   7868 HD1        -8.0640   19.9080    8.2870 ha       492 PS       0.124600
   7869 HE1        -5.5840   19.7580    8.4270 ha       492 PS       0.105800
   7870 HZ         -4.1840   21.3980    7.4770 ha       492 PS       0.124800
   7871 HE2        -5.0740   23.3080    6.2470 ha       492 PS       0.105800
   7872 HD2        -7.5940   23.5180    5.9770 ha       492 PS       0.124600
   7873 C2         -9.9840   23.5180    7.5970 c3       493 PS       0.031000
   7874 C1        -10.5040   24.6180    6.5470 c3       493 PS       0.000400
   7875 CG        -11.6040   24.0480    5.6370 ca       493 PS       0.250900
   7876 CD1       -11.4440   24.0280    4.2370 ca       493 PS      -0.270200
   7877 CE1       -12.4640   23.5080    3.3770 ca       493 PS      -0.050500
   7878 CZ        -13.6540   23.0180    4.0070 ca       493 PS      -0.188800
   7879 CE2       -13.8540   22.9980    5.3770 ca       493 PS      -0.050500
   7880 CD2       -12.8240   23.5680    6.2070 ca       493 PS      -0.270200
   7881 H21       -10.8040   23.2380    8.2670 hc       493 PS      -0.016200
   7882 H22        -9.1140   23.8480    8.1670 hc       493 PS      -0.016200
   7883 H1         -9.6240   24.8880    5.9570 hc       493 PS      -0.005300
   7884 HD1       -10.5340   24.3780    3.7670 ha       493 PS       0.124600
   7885 HE1       -12.2840   23.4480    2.3070 ha       493 PS       0.105800
   7886 HZ        -14.5140   22.6180    3.4670 ha       493 PS       0.124800
   7887 HE2       -14.8040   22.7180    5.8270 ha       493 PS       0.105800
   7888 HD2       -12.9740   23.8380    7.2470 ha       493 PS       0.124600
   7889 C2        -10.9740   25.8080    7.4070 c3       494 PS       0.031000
   7890 C1        -11.4740   27.0080    6.6370 c3       494 PS       0.000400
   7891 CG        -10.3740   27.6580    5.7370 ca       494 PS       0.250900
   7892 CD1       -10.2540   27.4180    4.3370 ca       494 PS      -0.270200
   7893 CE1        -9.3640   28.1380    3.5070 ca       494 PS      -0.050500
   7894 CZ         -8.5440   29.0880    4.0770 ca       494 PS      -0.188800
   7895 CE2        -8.5440   29.2280    5.4570 ca       494 PS      -0.050500
   7896 CD2        -9.5340   28.5680    6.3170 ca       494 PS      -0.270200
   7897 H21       -11.7440   25.4180    8.0770 hc       494 PS      -0.016200
   7898 H22       -10.1140   26.1180    8.0070 hc       494 PS      -0.016200
   7899 H1        -12.3340   26.6880    6.0370 hc       494 PS      -0.005300
   7900 HD1       -11.0140   26.7880    3.8970 ha       494 PS       0.124600
   7901 HE1        -9.2540   27.9080    2.4470 ha       494 PS       0.105800
   7902 HZ         -7.9540   29.7380    3.4370 ha       494 PS       0.124800
   7903 HE2        -7.9040   30.0080    5.8470 ha       494 PS       0.105800
   7904 HD2        -9.5740   28.7980    7.3870 ha       494 PS       0.124600
   7905 C2        -12.1440   28.1180    7.5170 c3       495 PS       0.031000
   7906 C1        -12.9540   29.2180    6.6470 c3       495 PS       0.000400
   7907 CG        -12.2140   30.5580    6.5970 ca       495 PS       0.250900
   7908 CD1       -11.5740   30.9680    5.4270 ca       495 PS      -0.270200
   7909 CE1       -11.0640   32.2480    5.2570 ca       495 PS      -0.050500
   7910 CZ        -11.0940   33.1880    6.2970 ca       495 PS      -0.188800
   7911 CE2       -11.6640   32.7880    7.5370 ca       495 PS      -0.050500
   7912 CD2       -12.1940   31.4580    7.6770 ca       495 PS      -0.270200
   7913 H21       -12.9240   27.5580    8.0470 hc       495 PS      -0.016200
   7914 H22       -11.4940   28.5680    8.2870 hc       495 PS      -0.016200
   7915 H1        -13.0940   28.7580    5.6570 hc       495 PS      -0.005300
   7916 HD1       -11.4740   30.2180    4.6470 ha       495 PS       0.124600
   7917 HE1       -10.6340   32.4880    4.2870 ha       495 PS       0.105800
   7918 HZ        -10.7740   34.2180    6.1370 ha       495 PS       0.124800
   7919 HE2       -11.7540   33.4980    8.3470 ha       495 PS       0.105800
   7920 HD2       -12.5640   31.2280    8.6670 ha       495 PS       0.124600
   7921 C2        -14.3740   29.2980    7.3470 c3       496 PS       0.031000
   7922 C1        -15.3840   30.4580    6.8070 c3       496 PS       0.000400
   7923 CG        -16.8240   30.2680    7.2770 ca       496 PS       0.250900
   7924 CD1       -17.5640   29.0980    7.0370 ca       496 PS      -0.270200
   7925 CE1       -18.9240   29.0180    7.4970 ca       496 PS      -0.050500
   7926 CZ        -19.4940   30.1180    8.1470 ca       496 PS      -0.188800
   7927 CE2       -18.7740   31.2880    8.2270 ca       496 PS      -0.050500
   7928 CD2       -17.4340   31.2980    7.9670 ca       496 PS      -0.270200
   7929 H21       -14.9440   28.3580    7.3370 hc       496 PS      -0.016200
   7930 H22       -14.1940   29.5580    8.3970 hc       496 PS      -0.016200
   7931 H1        -15.0340   31.3480    7.3470 hc       496 PS      -0.005300
   7932 HD1       -17.0640   28.2380    6.6170 ha       496 PS       0.124600
   7933 HE1       -19.4340   28.0780    7.3170 ha       496 PS       0.105800
   7934 HZ        -20.5540   30.1580    8.3570 ha       496 PS       0.124800
   7935 HE2       -19.2640   32.1680    8.6270 ha       496 PS       0.105800
   7936 HD2       -16.8440   32.1880    8.1770 ha       496 PS       0.124600
   7937 C2        -15.4040   30.7680    5.2970 c3       497 PS       0.031000
   7938 C1        -16.0540   32.0780    4.9070 c3       497 PS       0.000400
   7939 CG        -15.2740   32.7380    3.7770 ca       497 PS       0.250900
   7940 CD1       -14.6840   34.0180    3.9370 ca       497 PS      -0.270200
   7941 CE1       -14.2340   34.7880    2.8770 ca       497 PS      -0.050500
   7942 CZ        -14.3340   34.2580    1.5670 ca       497 PS      -0.188800
   7943 CE2       -14.7640   32.9180    1.3870 ca       497 PS      -0.050500
   7944 CD2       -15.3740   32.2380    2.4470 ca       497 PS      -0.270200
   7945 H21       -14.3940   30.7180    4.8570 hc       497 PS      -0.016200
   7946 H22       -15.9840   29.9680    4.8070 hc       497 PS      -0.016200
   7947 H1        -15.9740   32.6580    5.8270 hc       497 PS      -0.005300
   7948 HD1       -14.6340   34.4580    4.9370 ha       497 PS       0.124600
   7949 HE1       -14.0840   35.8580    2.9970 ha       497 PS       0.105800
   7950 HZ        -14.1340   34.9380    0.7470 ha       497 PS       0.124800
   7951 HE2       -14.8040   32.4180    0.4270 ha       497 PS       0.105800
   7952 HD2       -15.9340   31.3280    2.2970 ha       497 PS       0.124600
   7953 C2        -17.6040   31.8480    4.6270 c3       498 PS       0.031000
   7954 C1        -18.4440   33.1880    4.3370 c3       498 PS       0.000400
   7955 CG        -18.2940   34.2680    5.3970 ca       498 PS       0.250900
   7956 CD1       -17.3840   35.3480    5.2570 ca       498 PS      -0.270200
   7957 CE1       -17.1340   36.2480    6.3570 ca       498 PS      -0.050500
   7958 CZ        -17.8340   36.0580    7.5570 ca       498 PS      -0.188800
   7959 CE2       -18.6840   34.9380    7.7270 ca       498 PS      -0.050500
   7960 CD2       -18.9340   34.0680    6.6670 ca       498 PS      -0.270200
   7961 H21       -17.6240   31.1680    3.7670 hc       498 PS      -0.016200
   7962 H22       -18.1740   31.2680    5.3670 hc       498 PS      -0.016200
   7963 H1        -18.0540   33.5280    3.3770 hc       498 PS      -0.005300
   7964 HD1       -16.8440   35.5180    4.3370 ha       498 PS       0.124600
   7965 HE1       -16.4940   37.1280    6.3370 ha       498 PS       0.105800
   7966 HZ        -17.6540   36.7680    8.3670 ha       498 PS       0.124800
   7967 HE2       -19.1640   34.7580    8.6870 ha       498 PS       0.105800
   7968 HD2       -19.6640   33.2680    6.7470 ha       498 PS       0.124600
   7969 C2        -19.9040   32.7280    3.9870 c3       499 PS       0.031000
   7970 C1        -20.9540   33.9080    3.7170 c3       499 PS       0.000400
   7971 CG        -22.3840   33.6580    4.2070 ca       499 PS       0.250900
   7972 CD1       -23.2240   32.6380    3.5770 ca       499 PS      -0.270200
   7973 CE1       -24.5640   32.3580    3.9870 ca       499 PS      -0.050500
   7974 CZ        -25.0840   33.0780    5.1270 ca       499 PS      -0.188800
   7975 CE2       -24.1940   34.0180    5.7370 ca       499 PS      -0.050500
   7976 CD2       -22.8940   34.2780    5.2970 ca       499 PS      -0.270200
   7977 H21       -19.8940   32.0780    3.1070 hc       499 PS      -0.016200
   7978 H22       -20.2540   32.1680    4.8670 hc       499 PS      -0.016200
   7979 H1        -20.6440   34.8680    4.1470 hc       499 PS      -0.005300
   7980 HD1       -22.7440   32.0380    2.8070 ha       499 PS       0.124600
   7981 HE1       -25.1540   31.6280    3.4470 ha       499 PS       0.105800
   7982 HZ        -26.0640   32.8280    5.5070 ha       499 PS       0.124800
   7983 HE2       -24.4840   34.4680    6.6770 ha       499 PS       0.105800
   7984 HD2       -22.1940   34.8980    5.8370 ha       499 PS       0.124600
   7985 C2        -21.0140   34.2180    2.2070 c3       500 PS       0.031000
   7986 C1        -19.8340   35.0880    1.7270 c3       500 PS       0.000400
   7987 CG        -19.1040   34.5780    0.4470 ca       500 PS       0.250900
   7988 CD1       -17.7440   34.3980    0.4670 ca       500 PS      -0.270200
   7989 CE1       -17.1140   33.9280   -0.6930 ca       500 PS      -0.050500
   7990 CZ        -17.8740   33.4080   -1.7230 ca       500 PS      -0.188800
   7991 CE2       -19.3040   33.5080   -1.7030 ca       500 PS      -0.050500
   7992 CD2       -19.9040   34.1080   -0.6030 ca       500 PS      -0.270200
   7993 H21       -21.0540   33.2080    1.7870 hc       500 PS      -0.016200
   7994 H22       -21.9340   34.7180    1.8770 hc       500 PS      -0.016200
   7995 H1        -19.0840   35.1580    2.5270 hc       500 PS      -0.005300
   7996 HD1       -17.1840   34.7580    1.3270 ha       500 PS       0.124600
   7997 HE1       -16.0340   33.8880   -0.8230 ha       500 PS       0.105800
   7998 HZ        -17.4540   32.9180   -2.5930 ha       500 PS       0.124800
   7999 HE2       -19.7540   33.0480   -2.5730 ha       500 PS       0.105800
   8000 HD2       -20.9740   34.2080   -0.4130 ha       500 PS       0.124600
   8001 C2        -20.2440   36.5980    1.4770 c3       501 PS       0.031000
   8002 C1        -19.0840   37.5680    1.2370 c3       501 PS       0.000400
   8003 CG        -18.3840   38.0780    2.5570 ca       501 PS       0.250900
   8004 CD1       -18.9240   39.1880    3.2170 ca       501 PS      -0.270200
   8005 CE1       -18.1340   39.7880    4.2470 ca       501 PS      -0.050500
   8006 CZ        -16.8640   39.2180    4.5670 ca       501 PS      -0.188800
   8007 CE2       -16.4240   38.0580    3.9770 ca       501 PS      -0.050500
   8008 CD2       -17.1340   37.5480    2.8970 ca       501 PS      -0.270200
   8009 H21       -20.9640   36.6580    0.6470 hc       501 PS      -0.016200
   8010 H22       -20.7640   37.0180    2.3570 hc       501 PS      -0.016200
   8011 H1        -18.3640   37.0280    0.6070 hc       501 PS      -0.005300
   8012 HD1       -19.8740   39.6080    2.8870 ha       501 PS       0.124600
   8013 HE1       -18.4240   40.6880    4.7770 ha       501 PS       0.105800
   8014 HZ        -16.2940   39.7680    5.3170 ha       501 PS       0.124800
   8015 HE2       -15.4340   37.7680    4.3070 ha       501 PS       0.105800
   8016 HD2       -16.7240   36.7280    2.3170 ha       501 PS       0.124600
   8017 C2        -19.3940   38.6980    0.2670 c3       502 PS       0.031000
   8018 C1        -18.2240   39.6580   -0.0530 c3       502 PS       0.000400
   8019 CG        -16.8740   38.9580   -0.2130 ca       502 PS       0.250900
   8020 CD1       -15.9040   39.0880    0.7970 ca       502 PS      -0.270200
   8021 CE1       -14.7040   38.4080    0.7870 ca       502 PS      -0.050500
   8022 CZ        -14.4240   37.6180   -0.2930 ca       502 PS      -0.188800
   8023 CE2       -15.3440   37.5280   -1.3430 ca       502 PS      -0.050500
   8024 CD2       -16.5440   38.2680   -1.3030 ca       502 PS      -0.270200
   8025 H21       -19.6540   38.2680   -0.7030 hc       502 PS      -0.016200
   8026 H22       -20.1840   39.2680    0.7670 hc       502 PS      -0.016200
   8027 H1        -18.1740   40.2980    0.8370 hc       502 PS      -0.005300
   8028 HD1       -16.1740   39.6780    1.6770 ha       502 PS       0.124600
   8029 HE1       -14.0640   38.5280    1.6570 ha       502 PS       0.105800
   8030 HZ        -13.5440   36.9780   -0.3330 ha       502 PS       0.124800
   8031 HE2       -15.0440   36.9880   -2.2330 ha       502 PS       0.105800
   8032 HD2       -17.2940   38.1480   -2.0830 ha       502 PS       0.124600
   8033 C2        -18.4740  -39.4420   -1.3230 c3       503 PS       0.031000
   8034 C1        -19.3440  -38.2420   -1.0830 c3       503 PS       0.000400
   8035 CG        -20.7440  -38.5720   -1.6730 ca       503 PS       0.250900
   8036 CD1       -21.7240  -39.0720   -0.8530 ca       503 PS      -0.270200
   8037 CE1       -22.9640  -39.5220   -1.2930 ca       503 PS      -0.050500
   8038 CZ        -23.2940  -39.4020   -2.6430 ca       503 PS      -0.188800
   8039 CE2       -22.3340  -38.8320   -3.4930 ca       503 PS      -0.050500
   8040 CD2       -21.0440  -38.5220   -3.0030 ca       503 PS      -0.270200
   8041 H21       -17.4840  -39.1220   -1.6530 hc       503 PS      -0.016200
   8042 H22       -18.7340  -40.0120   -2.2330 hc       503 PS      -0.016200
   8043 H1        -19.3540  -38.1320    0.0070 hc       503 PS      -0.005300
   8044 HD1       -21.4740  -39.2020    0.1970 ha       503 PS       0.124600
   8045 HE1       -23.6140  -40.0720   -0.6130 ha       503 PS       0.105800
   8046 HZ        -24.1740  -39.8920   -3.0330 ha       503 PS       0.124800
   8047 HE2       -22.5340  -38.7320   -4.5530 ha       503 PS       0.105800
   8048 HD2       -20.3140  -38.0420   -3.6530 ha       503 PS       0.124600
   8049 C2        -18.7340  -36.9620   -1.8030 c3       504 PS       0.031000
   8050 C1        -17.6340  -36.4320   -0.9030 c3       504 PS       0.000400
   8051 CG        -18.1040  -35.9120    0.4870 ca       504 PS       0.250900
   8052 CD1       -18.0140  -36.7020    1.6370 ca       504 PS      -0.270200
   8053 CE1       -18.5740  -36.2520    2.8470 ca       504 PS      -0.050500
   8054 CZ        -19.0640  -34.9620    2.9170 ca       504 PS      -0.188800
   8055 CE2       -19.0340  -34.0720    1.8170 ca       504 PS      -0.050500
   8056 CD2       -18.6240  -34.6020    0.5470 ca       504 PS      -0.270200
   8057 H21       -18.3440  -37.2620   -2.7830 hc       504 PS      -0.016200
   8058 H22       -19.5140  -36.2420   -2.0730 hc       504 PS      -0.016200
   8059 H1        -17.0340  -37.3120   -0.6430 hc       504 PS      -0.005300
   8060 HD1       -17.5240  -37.6720    1.5870 ha       504 PS       0.124600
   8061 HE1       -18.5440  -36.8720    3.7370 ha       504 PS       0.105800
   8062 HZ        -19.3740  -34.4720    3.8370 ha       504 PS       0.124800
   8063 HE2       -19.1840  -33.0120    1.9970 ha       504 PS       0.105800
   8064 HD2       -18.7140  -34.0320   -0.3830 ha       504 PS       0.124600
   8065 C2        -16.5940  -35.5920   -1.5730 c3       505 PS       0.031000
   8066 C1        -15.1640  -35.7120   -0.9330 c3       505 PS       0.000400
   8067 CG        -14.3040  -34.4920   -1.1430 ca       505 PS       0.250900
   8068 CD1       -13.9840  -34.1220   -2.4530 ca       505 PS      -0.270200
   8069 CE1       -13.1940  -33.0020   -2.6430 ca       505 PS      -0.050500
   8070 CZ        -12.6240  -32.2220   -1.5830 ca       505 PS      -0.188800
   8071 CE2       -12.9540  -32.6820   -0.2530 ca       505 PS      -0.050500
   8072 CD2       -13.7340  -33.8220   -0.0430 ca       505 PS      -0.270200
   8073 H21       -16.5440  -36.0420   -2.5730 hc       505 PS      -0.016200
   8074 H22       -16.9540  -34.5720   -1.7230 hc       505 PS      -0.016200
   8075 H1        -15.3140  -35.6220    0.1470 hc       505 PS      -0.005300
   8076 HD1       -14.3540  -34.7620   -3.2530 ha       505 PS       0.124600
   8077 HE1       -12.8940  -32.7620   -3.6530 ha       505 PS       0.105800
   8078 HZ        -11.9240  -31.4220   -1.8030 ha       505 PS       0.124800
   8079 HE2       -12.4740  -32.1120    0.5370 ha       505 PS       0.105800
   8080 HD2       -14.0140  -34.1320    0.9570 ha       505 PS       0.124600
   8081 C2        -14.4940  -37.0420   -1.3630 c3       506 PS       0.031000
   8082 C1        -13.0940  -37.3320   -0.5830 c3       506 PS       0.000400
   8083 CG        -12.1640  -38.2220   -1.3930 ca       506 PS       0.250900
   8084 CD1       -10.9740  -37.7420   -1.9730 ca       506 PS      -0.270200
   8085 CE1       -10.0040  -38.6420   -2.4930 ca       506 PS      -0.050500
   8086 CZ        -10.2640  -40.0220   -2.5430 ca       506 PS      -0.188800
   8087 CE2       -11.4540  -40.5020   -2.0430 ca       506 PS      -0.050500
   8088 CD2       -12.4040  -39.5620   -1.4930 ca       506 PS      -0.270200
   8089 H21       -15.1440  -37.9120   -1.2030 hc       506 PS      -0.016200
   8090 H22       -14.3240  -37.1120   -2.4430 hc       506 PS      -0.016200
   8091 H1        -12.6340  -36.3420   -0.5130 hc       506 PS      -0.005300
   8092 HD1       -10.6440  -36.7120   -1.8030 ha       506 PS       0.124600
   8093 HE1        -9.0940  -38.2020   -2.8930 ha       506 PS       0.105800
   8094 HZ         -9.5340  -40.7020   -2.9730 ha       506 PS       0.124800
   8095 HE2       -11.6540  -41.5720   -2.0130 ha       506 PS       0.105800
   8096 HD2       -13.2940  -40.0020   -1.0430 ha       506 PS       0.124600
   8097 C2        -13.3540  -37.7920    0.9070 c3       507 PS       0.031000
   8098 C1        -12.1740  -38.1420    1.6770 c3       507 PS       0.000400
   8099 CG        -11.3540  -36.8920    1.8770 ca       507 PS       0.250900
   8100 CD1       -10.1340  -36.7320    1.2270 ca       507 PS      -0.270200
   8101 CE1        -9.4540  -35.5220    1.2570 ca       507 PS      -0.050500
   8102 CZ         -9.9140  -34.4520    2.0670 ca       507 PS      -0.188800
   8103 CE2       -11.2340  -34.5620    2.6670 ca       507 PS      -0.050500
   8104 CD2       -11.8740  -35.7520    2.5870 ca       507 PS      -0.270200
   8105 H21       -14.0040  -37.0520    1.3970 hc       507 PS      -0.016200
   8106 H22       -13.9740  -38.6920    0.9470 hc       507 PS      -0.016200
   8107 H1        -11.5640  -38.8920    1.1470 hc       507 PS      -0.005300
   8108 HD1        -9.7440  -37.6220    0.7270 ha       507 PS       0.124600
   8109 HE1        -8.5240  -35.4020    0.7270 ha       507 PS       0.105800
   8110 HZ         -9.2640  -33.5820    2.1370 ha       507 PS       0.124800
   8111 HE2       -11.7240  -33.7120    3.1370 ha       507 PS       0.105800
   8112 HD2       -12.8840  -35.7920    2.9770 ha       507 PS       0.124600
   8113 C2        -12.6440  -38.7320    2.9970 c3       508 PS       0.031000
   8114 C1        -11.6340  -39.6020    3.7070 c3       508 PS       0.000400
   8115 CG        -11.9240  -39.5420    5.1870 ca       508 PS       0.250900
   8116 CD1       -13.0540  -40.2620    5.7370 ca       508 PS      -0.270200
   8117 CE1       -13.3740  -40.0620    7.0770 ca       508 PS      -0.050500
   8118 CZ        -12.5740  -39.2120    7.8070 ca       508 PS      -0.188800
   8119 CE2       -11.4240  -38.5620    7.2970 ca       508 PS      -0.050500
   8120 CD2       -11.1040  -38.7320    5.9370 ca       508 PS      -0.270200
   8121 H21       -12.8540  -37.9720    3.7670 hc       508 PS      -0.016200
   8122 H22       -13.5840  -39.2720    2.8270 hc       508 PS      -0.016200
   8123 H1        -10.6040  -39.2820    3.5070 hc       508 PS      -0.005300
   8124 HD1       -13.7440  -40.8420    5.1370 ha       508 PS       0.124600
   8125 HE1       -14.2740  -40.4820    7.5170 ha       508 PS       0.105800
   8126 HZ        -12.8340  -39.0420    8.8470 ha       508 PS       0.124800
   8127 HE2       -10.8440  -37.9020    7.9270 ha       508 PS       0.105800
   8128 HD2       -10.2740  -38.2020    5.4870 ha       508 PS       0.124600
   8129 C2        -11.6740   38.9680    3.1470 c3       509 PS       0.031000
   8130 C1        -10.5040   38.0080    3.5770 c3       509 PS       0.000400
   8131 CG        -10.5940   37.6180    5.0870 ca       509 PS       0.250900
   8132 CD1        -9.6840   38.1780    6.0070 ca       509 PS      -0.270200
   8133 CE1        -9.9140   37.9680    7.3470 ca       509 PS      -0.050500
   8134 CZ        -11.0040   37.2080    7.8670 ca       509 PS      -0.188800
   8135 CE2       -11.9240   36.6980    6.9170 ca       509 PS      -0.050500
   8136 CD2       -11.7240   36.8080    5.5270 ca       509 PS      -0.270200
   8137 H21       -12.5840   38.3980    3.3570 hc       509 PS      -0.016200
   8138 H22       -11.6540   38.8980    2.0470 hc       509 PS      -0.016200
   8139 H1         -9.6240   38.6580    3.4670 hc       509 PS      -0.005300
   8140 HD1        -8.8240   38.7080    5.6070 ha       509 PS       0.124600
   8141 HE1        -9.1140   38.2980    8.0170 ha       509 PS       0.105800
   8142 HZ        -11.1140   37.0480    8.9370 ha       509 PS       0.124800
   8143 HE2       -12.7940   36.2380    7.3870 ha       509 PS       0.105800
   8144 HD2       -12.4740   36.4680    4.8270 ha       509 PS       0.124600
   8145 C2        -10.4340   36.8480    2.6070 c3       510 PS       0.031000
   8146 C1         -9.5340   35.6880    3.0870 c3       510 PS       0.000400
   8147 CG         -9.4140   34.3780    2.2570 ca       510 PS       0.250900
   8148 CD1       -10.5840   33.7580    1.7570 ca       510 PS      -0.270200
   8149 CE1       -10.4940   32.4180    1.2570 ca       510 PS      -0.050500
   8150 CZ         -9.2640   31.7480    1.2870 ca       510 PS      -0.188800
   8151 CE2        -8.0940   32.4280    1.6670 ca       510 PS      -0.050500
   8152 CD2        -8.1840   33.7880    2.1370 ca       510 PS      -0.270200
   8153 H21       -11.4140   36.3980    2.3870 hc       510 PS      -0.016200
   8154 H22       -10.0040   37.3180    1.7170 hc       510 PS      -0.016200
   8155 H1         -8.4840   36.0080    3.1070 hc       510 PS      -0.005300
   8156 HD1       -11.5540   34.2480    1.7970 ha       510 PS       0.124600
   8157 HE1       -11.4440   31.9780    0.9570 ha       510 PS       0.105800
   8158 HZ         -9.1540   30.7080    0.9970 ha       510 PS       0.124800
   8159 HE2        -7.1540   31.8780    1.7570 ha       510 PS       0.105800
   8160 HD2        -7.2940   34.2080    2.5970 ha       510 PS       0.124600
   8161 C2         20.4860   12.9380   -8.0830 c3       511 PS       0.031000
   8162 C1         20.0560   11.5380   -7.6830 c3       511 PS       0.000400
   8163 CG         21.2660   10.5680   -7.5930 ca       511 PS       0.250900
   8164 CD1        22.5360   11.0780   -7.3130 ca       511 PS      -0.270200
   8165 CE1        23.6160   10.1580   -7.3530 ca       511 PS      -0.050500
   8166 CZ         23.4660    8.8080   -7.6130 ca       511 PS      -0.188800
   8167 CE2        22.2360    8.3780   -7.9730 ca       511 PS      -0.050500
   8168 CD2        21.1260    9.2380   -8.0430 ca       511 PS      -0.270200
   8169 H21        21.3460   12.8780   -8.7530 hc       511 PS      -0.016200
   8170 H22        19.6660   13.4680   -8.5830 hc       511 PS      -0.016200
   8171 H1         19.5060   11.2280   -8.5730 hc       511 PS      -0.005300
   8172 HD1        22.5360   12.1080   -6.9630 ha       511 PS       0.124600
   8173 HE1        24.6360   10.4580   -7.1230 ha       511 PS       0.105800
   8174 HZ         24.3460    8.1880   -7.7530 ha       511 PS       0.124800
   8175 HE2        22.1460    7.3580   -8.3430 ha       511 PS       0.105800
   8176 HD2        20.1960    8.8280   -8.4230 ha       511 PS       0.124600
   8177 C2         19.0360   11.5280   -6.5630 c3       512 PS       0.031000
   8178 C1         19.2060   10.4380   -5.4030 c3       512 PS       0.000400
   8179 CG         20.5360   10.5680   -4.5930 ca       512 PS       0.250900
   8180 CD1        20.8660   11.7380   -3.8530 ca       512 PS      -0.270200
   8181 CE1        22.0960   11.7880   -3.0630 ca       512 PS      -0.050500
   8182 CZ         22.9160   10.6380   -3.1530 ca       512 PS      -0.188800
   8183 CE2        22.5960    9.5580   -3.8730 ca       512 PS      -0.050500
   8184 CD2        21.4060    9.4880   -4.5630 ca       512 PS      -0.270200
   8185 H21        19.1660   12.4080   -5.9230 hc       512 PS      -0.016200
   8186 H22        18.0760   11.4980   -7.0730 hc       512 PS      -0.016200
   8187 H1         19.2160    9.5080   -5.9830 hc       512 PS      -0.005300
   8188 HD1        20.2460   12.6280   -3.9030 ha       512 PS       0.124600
   8189 HE1        22.3860   12.6780   -2.5230 ha       512 PS       0.105800
   8190 HZ         23.8260   10.6080   -2.5630 ha       512 PS       0.124800
   8191 HE2        23.2860    8.7180   -3.9430 ha       512 PS       0.105800
   8192 HD2        21.1260    8.5480   -5.0330 ha       512 PS       0.124600
   8193 C2         17.8860   10.3980   -4.5630 c3       513 PS       0.031000
   8194 C1         17.8360    9.2380   -3.4930 c3       513 PS       0.000400
   8195 CG         18.4160    9.7380   -2.1630 ca       513 PS       0.250900
   8196 CD1        19.6360    9.2180   -1.7430 ca       513 PS      -0.270200
   8197 CE1        20.2160    9.6880   -0.5530 ca       513 PS      -0.050500
   8198 CZ         19.5760   10.6680    0.2770 ca       513 PS      -0.188800
   8199 CE2        18.3760   11.1780   -0.1630 ca       513 PS      -0.050500
   8200 CD2        17.7860   10.7580   -1.3530 ca       513 PS      -0.270200
   8201 H21        17.5960   11.3680   -4.1530 hc       513 PS      -0.016200
   8202 H22        17.0660   10.1180   -5.2330 hc       513 PS      -0.016200
   8203 H1         18.4660    8.4680   -3.9630 hc       513 PS      -0.005300
   8204 HD1        20.1360    8.4380   -2.3230 ha       513 PS       0.124600
   8205 HE1        21.1160    9.2280   -0.1630 ha       513 PS       0.105800
   8206 HZ         19.9860   11.0480    1.2070 ha       513 PS       0.124800
   8207 HE2        17.7860   11.9280    0.3470 ha       513 PS       0.105800
   8208 HD2        16.8860   11.3180   -1.5730 ha       513 PS       0.124600
   8209 C2         16.3760    8.6280   -3.3430 c3       514 PS       0.031000
   8210 C1         16.1360    7.5780   -2.2530 c3       514 PS       0.000400
   8211 CG         17.4060    6.6880   -2.2030 ca       514 PS       0.250900
   8212 CD1        18.2160    6.6880   -1.0530 ca       514 PS      -0.270200
   8213 CE1        19.4060    5.8780   -0.9830 ca       514 PS      -0.050500
   8214 CZ         19.7760    5.0480   -2.0930 ca       514 PS      -0.188800
   8215 CE2        18.8860    5.0280   -3.2030 ca       514 PS      -0.050500
   8216 CD2        17.7360    5.8680   -3.2830 ca       514 PS      -0.270200
   8217 H21        15.5860    9.3780   -3.2130 hc       514 PS      -0.016200
   8218 H22        16.1560    8.2080   -4.3330 hc       514 PS      -0.016200
   8219 H1         16.1460    8.1480   -1.3230 hc       514 PS      -0.005300
   8220 HD1        18.0360    7.3380   -0.2130 ha       514 PS       0.124600
   8221 HE1        20.0360    6.0080   -0.1030 ha       514 PS       0.105800
   8222 HZ         20.6460    4.3880   -2.1430 ha       514 PS       0.124800
   8223 HE2        19.0860    4.5180   -4.1330 ha       514 PS       0.105800
   8224 HD2        17.1060    5.9180   -4.1730 ha       514 PS       0.124600
   8225 C2         14.8160    6.8880   -2.4430 c3       515 PS       0.031000
   8226 C1         14.4260    5.8780   -1.3030 c3       515 PS       0.000400
   8227 CG         14.1360    6.6980    0.0270 ca       515 PS       0.250900
   8228 CD1        14.9260    6.4680    1.1070 ca       515 PS      -0.270200
   8229 CE1        14.7360    7.1080    2.3270 ca       515 PS      -0.050500
   8230 CZ         13.6160    7.9580    2.4470 ca       515 PS      -0.188800
   8231 CE2        12.6860    8.0280    1.4170 ca       515 PS      -0.050500
   8232 CD2        12.9760    7.4480    0.1370 ca       515 PS      -0.270200
   8233 H21        14.0460    7.6580   -2.5230 hc       515 PS      -0.016200
   8234 H22        14.7760    6.4380   -3.4430 hc       515 PS      -0.016200
   8235 H1         15.2060    5.1180   -1.1830 hc       515 PS      -0.005300
   8236 HD1        15.8260    5.8580    1.0970 ha       515 PS       0.124600
   8237 HE1        15.4360    6.9980    3.1570 ha       515 PS       0.105800
   8238 HZ         13.5760    8.6380    3.2870 ha       515 PS       0.124800
   8239 HE2        11.8160    8.6680    1.5470 ha       515 PS       0.105800
   8240 HD2        12.2260    7.5380   -0.6330 ha       515 PS       0.124600
   8241 C2         13.1960    4.9380   -1.6030 c3       516 PS       0.031000
   8242 C1         13.4660    3.4180   -1.2330 c3       516 PS       0.000400
   8243 CG         13.8660    3.2480    0.2170 ca       516 PS       0.250900
   8244 CD1        15.1260    2.7380    0.4570 ca       516 PS      -0.270200
   8245 CE1        15.4960    2.3880    1.7270 ca       516 PS      -0.050500
   8246 CZ         14.6060    2.5980    2.7870 ca       516 PS      -0.188800
   8247 CE2        13.3660    3.2280    2.5770 ca       516 PS      -0.050500
   8248 CD2        12.9660    3.5780    1.2870 ca       516 PS      -0.270200
   8249 H21        12.3160    5.3480   -1.1030 hc       516 PS      -0.016200
   8250 H22        12.9960    5.0080   -2.6830 hc       516 PS      -0.016200
   8251 H1         14.2360    3.0880   -1.9430 hc       516 PS      -0.005300
   8252 HD1        15.7360    2.4180   -0.3830 ha       516 PS       0.124600
   8253 HE1        16.3560    1.7380    1.7870 ha       516 PS       0.105800
   8254 HZ         14.9160    2.2480    3.7570 ha       516 PS       0.124800
   8255 HE2        12.7560    3.4780    3.4370 ha       516 PS       0.105800
   8256 HD2        11.9960    3.9880    1.0070 ha       516 PS       0.124600
   8257 C2         12.2660    2.6080   -1.5030 c3       517 PS       0.031000
   8258 C1         12.3460    1.1380   -1.1230 c3       517 PS       0.000400
   8259 CG         11.0460    0.3380   -1.3330 ca       517 PS       0.250900
   8260 CD1        10.1760   -0.0320   -0.2630 ca       517 PS      -0.270200
   8261 CE1         9.0560   -0.7820   -0.4430 ca       517 PS      -0.050500
   8262 CZ          8.7960   -1.3620   -1.8330 ca       517 PS      -0.188800
   8263 CE2         9.7160   -1.0520   -2.8330 ca       517 PS      -0.050500
   8264 CD2        10.7660   -0.1220   -2.6430 ca       517 PS      -0.270200
   8265 H21        11.4360    2.9680   -0.8730 hc       517 PS      -0.016200
   8266 H22        11.8660    2.6380   -2.5230 hc       517 PS      -0.016200
   8267 H1         12.5360    1.0980   -0.0430 hc       517 PS      -0.005300
   8268 HD1        10.4660    0.4180    0.6870 ha       517 PS       0.124600
   8269 HE1         8.3460   -0.8420    0.3870 ha       517 PS       0.105800
   8270 HZ          7.9960   -2.0820   -1.9630 ha       517 PS       0.124800
   8271 HE2         9.5860   -1.3820   -3.8630 ha       517 PS       0.105800
   8272 HD2        11.5560    0.0580   -3.3630 ha       517 PS       0.124600
   8273 C2         13.6160    0.4280   -1.8030 c3       518 PS       0.031000
   8274 C1         13.6660   -1.1020   -1.5230 c3       518 PS       0.000400
   8275 CG         13.6260   -1.4320   -0.0430 ca       518 PS       0.250900
   8276 CD1        12.5560   -2.1520    0.4870 ca       518 PS      -0.270200
   8277 CE1        12.4760   -2.4020    1.8970 ca       518 PS      -0.050500
   8278 CZ         13.5460   -2.0120    2.6970 ca       518 PS      -0.188800
   8279 CE2        14.5960   -1.2720    2.1470 ca       518 PS      -0.050500
   8280 CD2        14.6560   -1.0220    0.8170 ca       518 PS      -0.270200
   8281 H21        13.5760    0.5580   -2.8930 hc       518 PS      -0.016200
   8282 H22        14.5960    0.7680   -1.4530 hc       518 PS      -0.016200
   8283 H1         12.8260   -1.5220   -2.0830 hc       518 PS      -0.005300
   8284 HD1        11.7960   -2.4720   -0.2130 ha       518 PS       0.124600
   8285 HE1        11.6360   -2.9420    2.3270 ha       518 PS       0.105800
   8286 HZ         13.6560   -2.2320    3.7570 ha       518 PS       0.124800
   8287 HE2        15.4060   -0.9020    2.7670 ha       518 PS       0.105800
   8288 HD2        15.4060   -0.3620    0.3870 ha       518 PS       0.124600
   8289 C2         14.8960   -1.7720   -2.2530 c3       519 PS       0.031000
   8290 C1         14.8760   -3.3220   -2.1330 c3       519 PS       0.000400
   8291 CG         13.4960   -3.9820   -2.4030 ca       519 PS       0.250900
   8292 CD1        12.8360   -4.7720   -1.4730 ca       519 PS      -0.270200
   8293 CE1        11.6460   -5.5620   -1.8030 ca       519 PS      -0.050500
   8294 CZ         11.0460   -5.3520   -3.0830 ca       519 PS      -0.188800
   8295 CE2        11.6460   -4.4420   -3.9330 ca       519 PS      -0.050500
   8296 CD2        12.8460   -3.7620   -3.5630 ca       519 PS      -0.270200
   8297 H21        15.0560   -1.4720   -3.2930 hc       519 PS      -0.016200
   8298 H22        15.8360   -1.4420   -1.7730 hc       519 PS      -0.016200
   8299 H1         15.2260   -3.5720   -1.1130 hc       519 PS      -0.005300
   8300 HD1        13.3560   -4.8620   -0.5230 ha       519 PS       0.124600
   8301 HE1        11.1360   -6.1920   -1.0830 ha       519 PS       0.105800
   8302 HZ         10.1160   -5.8120   -3.4030 ha       519 PS       0.124800
   8303 HE2        11.1360   -4.3920   -4.8930 ha       519 PS       0.105800
   8304 HD2        13.2660   -2.9920   -4.2030 ha       519 PS       0.124600
   8305 C2         15.9960   -3.7520   -3.0330 c3       520 PS       0.031000
   8306 C1         16.1660   -5.3220   -3.0930 c3       520 PS       0.000400
   8307 CG         15.7660   -5.8220   -4.4730 ca       520 PS       0.250900
   8308 CD1        14.5360   -6.4120   -4.6030 ca       520 PS      -0.270200
   8309 CE1        14.0960   -6.8220   -5.8430 ca       520 PS      -0.050500
   8310 CZ         14.9160   -6.7220   -6.9830 ca       520 PS      -0.188800
   8311 CE2        16.2360   -6.0920   -6.8730 ca       520 PS      -0.050500
   8312 CD2        16.5960   -5.7320   -5.5630 ca       520 PS      -0.270200
   8313 H21        15.8160   -3.4620   -4.0830 hc       520 PS      -0.016200
   8314 H22        16.9760   -3.3720   -2.7430 hc       520 PS      -0.016200
   8315 H1         15.4560   -5.7820   -2.3930 hc       520 PS      -0.005300
   8316 HD1        13.8360   -6.5420   -3.7830 ha       520 PS       0.124600
   8317 HE1        13.0460   -7.1020   -5.9730 ha       520 PS       0.105800
   8318 HZ         14.5960   -7.1320   -7.9330 ha       520 PS       0.124800
   8319 HE2        16.9160   -6.0520   -7.7230 ha       520 PS       0.105800
   8320 HD2        17.6060   -5.3820   -5.3930 ha       520 PS       0.124600
   8321 C2         17.5060   -5.8320   -2.6330 c3       521 PS       0.031000
   8322 C1         17.7260   -7.3220   -2.3430 c3       521 PS       0.000400
   8323 CG         16.5160   -7.9220   -1.7030 ca       521 PS       0.250900
   8324 CD1        15.5960   -8.5920   -2.5230 ca       521 PS      -0.270200
   8325 CE1        14.4660   -9.3020   -2.0030 ca       521 PS      -0.050500
   8326 CZ         14.2160   -9.2720   -0.5730 ca       521 PS      -0.188800
   8327 CE2        15.1360   -8.5920    0.2070 ca       521 PS      -0.050500
   8328 CD2        16.2860   -7.9520   -0.3430 ca       521 PS      -0.270200
   8329 H21        18.2360   -5.5620   -3.4030 hc       521 PS      -0.016200
   8330 H22        17.8160   -5.3520   -1.6930 hc       521 PS      -0.016200
   8331 H1         17.7760   -7.7920   -3.3330 hc       521 PS      -0.005300
   8332 HD1        15.7260   -8.5720   -3.5930 ha       521 PS       0.124600
   8333 HE1        13.9260   -9.9320   -2.7030 ha       521 PS       0.105800
   8334 HZ         13.4460   -9.8020   -0.0230 ha       521 PS       0.124800
   8335 HE2        15.0160   -8.6620    1.2870 ha       521 PS       0.105800
   8336 HD2        16.9560   -7.4120    0.3170 ha       521 PS       0.124600
   8337 C2         19.0560   -7.5020   -1.5130 c3       522 PS       0.031000
   8338 C1         19.7160   -8.8920   -1.8430 c3       522 PS       0.000400
   8339 CG         18.8360   -9.9920   -1.3030 ca       522 PS       0.250900
   8340 CD1        18.2360  -10.8720   -2.3130 ca       522 PS      -0.270200
   8341 CE1        17.5360  -12.0920   -1.9630 ca       522 PS      -0.050500
   8342 CZ         17.4560  -12.4620   -0.6130 ca       522 PS      -0.188800
   8343 CE2        18.0260  -11.6420    0.3470 ca       522 PS      -0.050500
   8344 CD2        18.6760  -10.4020    0.0070 ca       522 PS      -0.270200
   8345 H21        19.7660   -6.7420   -1.8630 hc       522 PS      -0.016200
   8346 H22        18.8660   -7.2920   -0.4530 hc       522 PS      -0.016200
   8347 H1         19.8260   -8.9220   -2.9330 hc       522 PS      -0.005300
   8348 HD1        18.4060  -10.6420   -3.3630 ha       522 PS       0.124600
   8349 HE1        17.1560  -12.7220   -2.7730 ha       522 PS       0.105800
   8350 HZ         16.8860  -13.3720   -0.4230 ha       522 PS       0.124800
   8351 HE2        17.9760  -11.8820    1.4070 ha       522 PS       0.105800
   8352 HD2        19.1460   -9.8020    0.7870 ha       522 PS       0.124600
   8353 C2         21.1160   -9.0720   -1.2130 c3       523 PS       0.031000
   8354 C1         22.2660   -8.1120   -1.7430 c3       523 PS       0.000400
   8355 CG         23.4460   -8.1520   -0.7130 ca       523 PS       0.250900
   8356 CD1        23.8860   -6.9520   -0.1730 ca       523 PS      -0.270200
   8357 CE1        25.0460   -6.9620    0.6570 ca       523 PS      -0.050500
   8358 CZ         25.5960   -8.1920    1.0870 ca       523 PS      -0.188800
   8359 CE2        25.1660   -9.4120    0.5770 ca       523 PS      -0.050500
   8360 CD2        24.0960   -9.4120   -0.3230 ca       523 PS      -0.270200
   8361 H21        21.1060   -8.8620   -0.1430 hc       523 PS      -0.016200
   8362 H22        21.3860  -10.1220   -1.3830 hc       523 PS      -0.016200
   8363 H1         21.9360   -7.0620   -1.7830 hc       523 PS      -0.005300
   8364 HD1        23.5760   -5.9620   -0.4930 ha       523 PS       0.124600
   8365 HE1        25.4660   -6.0220    0.9870 ha       523 PS       0.105800
   8366 HZ         26.3760   -8.1020    1.8470 ha       523 PS       0.124800
   8367 HE2        25.5560  -10.3620    0.9470 ha       523 PS       0.105800
   8368 HD2        23.6860  -10.3120   -0.7730 ha       523 PS       0.124600
   8369 C2         22.7360   -8.4320   -3.1430 c3       524 PS       0.031000
   8370 C1         23.6860   -7.4520   -3.8130 c3       524 PS       0.000400
   8371 CG         23.4260   -7.4220   -5.2730 ca       524 PS       0.250900
   8372 CD1        23.1660   -8.6420   -6.0630 ca       524 PS      -0.270200
   8373 CE1        22.7560   -8.6220   -7.3930 ca       524 PS      -0.050500
   8374 CZ         22.6660   -7.3620   -8.0430 ca       524 PS      -0.188800
   8375 CE2        22.9060   -6.2420   -7.3030 ca       524 PS      -0.050500
   8376 CD2        23.3460   -6.2520   -5.9430 ca       524 PS      -0.270200
   8377 H21        23.1660   -9.4420   -3.1130 hc       524 PS      -0.016200
   8378 H22        21.7960   -8.4720   -3.7030 hc       524 PS      -0.016200
   8379 H1         23.5860   -6.4620   -3.3630 hc       524 PS      -0.005300
   8380 HD1        23.1560   -9.6020   -5.5530 ha       524 PS       0.124600
   8381 HE1        22.4160   -9.5820   -7.7630 ha       524 PS       0.105800
   8382 HZ         22.4760   -7.2120   -9.1030 ha       524 PS       0.124800
   8383 HE2        22.7860   -5.2420   -7.7230 ha       524 PS       0.105800
   8384 HD2        23.4560   -5.3220   -5.3730 ha       524 PS       0.124600
   8385 C2         25.2460   -7.8620   -3.6130 c3       525 PS       0.031000
   8386 C1         26.2160   -6.7320   -4.0730 c3       525 PS       0.000400
   8387 CG         26.9160   -7.0320   -5.4130 ca       525 PS       0.250900
   8388 CD1        27.6760   -8.2520   -5.6030 ca       525 PS      -0.270200
   8389 CE1        28.2960   -8.4720   -6.8030 ca       525 PS      -0.050500
   8390 CZ         28.0260   -7.6320   -7.8730 ca       525 PS      -0.188800
   8391 CE2        27.2960   -6.5220   -7.7430 ca       525 PS      -0.050500
   8392 CD2        26.6260   -6.2320   -6.5330 ca       525 PS      -0.270200
   8393 H21        25.4360   -8.1220   -2.5630 hc       525 PS      -0.016200
   8394 H22        25.4360   -8.7620   -4.2130 hc       525 PS      -0.016200
   8395 H1         25.5460   -5.9020   -4.3430 hc       525 PS      -0.005300
   8396 HD1        27.8260   -8.9320   -4.7730 ha       525 PS       0.124600
   8397 HE1        28.8360   -9.3620   -7.1230 ha       525 PS       0.105800
   8398 HZ         28.5360   -7.9020   -8.8030 ha       525 PS       0.124800
   8399 HE2        27.1460   -5.8020   -8.5530 ha       525 PS       0.105800
   8400 HD2        25.9960   -5.3520   -6.5130 ha       525 PS       0.124600
   8401 C2         27.1460   -6.0720   -2.9630 c3       526 PS       0.031000
   8402 C1         27.4460   -4.5320   -2.9930 c3       526 PS       0.000400
   8403 CG         28.8060   -4.2920   -2.1130 ca       526 PS       0.250900
   8404 CD1        29.0360   -4.9020   -0.8630 ca       526 PS      -0.270200
   8405 CE1        30.2260   -4.7520   -0.1930 ca       526 PS      -0.050500
   8406 CZ         31.2760   -4.0220   -0.7130 ca       526 PS      -0.188800
   8407 CE2        30.9960   -3.2920   -1.8930 ca       526 PS      -0.050500
   8408 CD2        29.8360   -3.4520   -2.5930 ca       526 PS      -0.270200
   8409 H21        26.6960   -6.3320   -2.0030 hc       526 PS      -0.016200
   8410 H22        28.0960   -6.6220   -3.0130 hc       526 PS      -0.016200
   8411 H1         27.6760   -4.3520   -4.0530 hc       526 PS      -0.005300
   8412 HD1        28.2560   -5.5720   -0.5130 ha       526 PS       0.124600
   8413 HE1        30.4860   -5.4120    0.6370 ha       526 PS       0.105800
   8414 HZ         32.2460   -3.9320   -0.2230 ha       526 PS       0.124800
   8415 HE2        31.6760   -2.5020   -2.2030 ha       526 PS       0.105800
   8416 HD2        29.7260   -2.8620   -3.5030 ha       526 PS       0.124600
   8417 C2         26.2960   -3.6520   -2.4730 c3       527 PS       0.031000
   8418 C1         26.3760   -2.2420   -3.2130 c3       527 PS       0.000400
   8419 CG         26.1160   -2.2020   -4.6630 ca       527 PS       0.250900
   8420 CD1        26.7360   -1.2320   -5.4530 ca       527 PS      -0.270200
   8421 CE1        26.4560   -1.1120   -6.8730 ca       527 PS      -0.050500
   8422 CZ         25.6260   -2.1120   -7.4830 ca       527 PS      -0.188800
   8423 CE2        24.8860   -2.9820   -6.6130 ca       527 PS      -0.050500
   8424 CD2        25.1960   -3.0820   -5.2330 ca       527 PS      -0.270200
   8425 H21        25.3160   -4.0820   -2.7030 hc       527 PS      -0.016200
   8426 H22        26.2860   -3.5520   -1.3830 hc       527 PS      -0.016200
   8427 H1         27.3960   -1.8520   -3.0630 hc       527 PS      -0.005300
   8428 HD1        27.4460   -0.5720   -4.9630 ha       527 PS       0.124600
   8429 HE1        27.0060   -0.4120   -7.5030 ha       527 PS       0.105800
   8430 HZ         25.4560   -2.0720   -8.5630 ha       527 PS       0.124800
   8431 HE2        24.2160   -3.7320   -7.0330 ha       527 PS       0.105800
   8432 HD2        24.7660   -3.8920   -4.6430 ha       527 PS       0.124600
   8433 C2         25.5760   -1.0020   -2.4630 c3       528 PS       0.031000
   8434 C1         24.0960   -0.7320   -2.7930 c3       528 PS       0.000400
   8435 CG         23.8060    0.7480   -2.3730 ca       528 PS       0.250900
   8436 CD1        23.3160    1.6680   -3.3430 ca       528 PS      -0.270200
   8437 CE1        23.0960    2.9980   -2.9630 ca       528 PS      -0.050500
   8438 CZ         23.3760    3.4280   -1.6730 ca       528 PS      -0.188800
   8439 CE2        24.0160    2.4880   -0.7930 ca       528 PS      -0.050500
   8440 CD2        24.0560    1.1980   -1.1230 ca       528 PS      -0.270200
   8441 H21        25.7960   -1.0820   -1.3930 hc       528 PS      -0.016200
   8442 H22        26.1560   -0.0820   -2.6030 hc       528 PS      -0.016200
   8443 H1         23.8860   -0.8920   -3.8530 hc       528 PS      -0.005300
   8444 HD1        23.2060    1.3580   -4.3830 ha       528 PS       0.124600
   8445 HE1        22.6460    3.7080   -3.6430 ha       528 PS       0.105800
   8446 HZ         23.2260    4.4980   -1.5330 ha       528 PS       0.124800
   8447 HE2        24.1960    2.7580    0.2470 ha       528 PS       0.105800
   8448 HD2        24.3460    0.5080   -0.3330 ha       528 PS       0.124600
   8449 C2         23.3160   -1.7520   -1.9230 c3       529 PS       0.031000
   8450 C1         21.7960   -1.9820   -2.1630 c3       529 PS       0.000400
   8451 CG         21.4760   -2.7120   -3.3930 ca       529 PS       0.250900
   8452 CD1        21.4660   -2.0620   -4.6430 ca       529 PS      -0.270200
   8453 CE1        21.2260   -2.9120   -5.7930 ca       529 PS      -0.050500
   8454 CZ         20.8160   -4.2220   -5.6630 ca       529 PS      -0.188800
   8455 CE2        20.7160   -4.8020   -4.3730 ca       529 PS      -0.050500
   8456 CD2        21.0360   -4.0820   -3.3130 ca       529 PS      -0.270200
   8457 H21        23.8260   -2.7120   -2.0530 hc       529 PS      -0.016200
   8458 H22        23.3960   -1.3420   -0.9130 hc       529 PS      -0.016200
   8459 H1         21.4660   -2.5420   -1.2730 hc       529 PS      -0.005300
   8460 HD1        21.7560   -1.0220   -4.6630 ha       529 PS       0.124600
   8461 HE1        21.3960   -2.6120   -6.8230 ha       529 PS       0.105800
   8462 HZ         20.4360   -4.7820   -6.5130 ha       529 PS       0.124800
   8463 HE2        20.4460   -5.8420   -4.2730 ha       529 PS       0.105800
   8464 HD2        21.1160   -4.5420   -2.3330 ha       529 PS       0.124600
   8465 C2         20.9360   -0.6220   -2.1330 c3       530 PS       0.031000
   8466 C1         19.4360   -0.8120   -2.1730 c3       530 PS       0.000400
   8467 CG         18.9260   -1.3520   -0.8130 ca       530 PS       0.250900
   8468 CD1        18.7360   -2.7820   -0.6830 ca       530 PS      -0.270200
   8469 CE1        18.3760   -3.2720    0.5670 ca       530 PS      -0.050500
   8470 CZ         18.2160   -2.4120    1.6470 ca       530 PS      -0.188800
   8471 CE2        18.3560   -0.9920    1.5470 ca       530 PS      -0.050500
   8472 CD2        18.7160   -0.4720    0.2970 ca       530 PS      -0.270200
   8473 H21        21.0460   -0.0720   -1.1830 hc       530 PS      -0.016200
   8474 H22        21.2560    0.1080   -2.8830 hc       530 PS      -0.016200
   8475 H1         19.2560   -1.5920   -2.9230 hc       530 PS      -0.005300
   8476 HD1        18.9560   -3.4620   -1.5030 ha       530 PS       0.124600
   8477 HE1        18.2560   -4.3520    0.5770 ha       530 PS       0.105800
   8478 HZ         17.9060   -2.7920    2.6170 ha       530 PS       0.124800
   8479 HE2        18.1660   -0.3220    2.3770 ha       530 PS       0.105800
   8480 HD2        18.8660    0.5980    0.1270 ha       530 PS       0.124600
   8481 C2         18.6760    0.5180   -2.5630 c3       531 PS       0.031000
   8482 C1         18.1560    0.6780   -4.0130 c3       531 PS       0.000400
   8483 CG         19.2660    0.8480   -5.0130 ca       531 PS       0.250900
   8484 CD1        19.4360   -0.0520   -6.0130 ca       531 PS      -0.270200
   8485 CE1        20.3460    0.1280   -7.0730 ca       531 PS      -0.050500
   8486 CZ         21.1260    1.2780   -7.0430 ca       531 PS      -0.188800
   8487 CE2        20.9660    2.2280   -6.0330 ca       531 PS      -0.050500
   8488 CD2        20.1460    1.9380   -4.9830 ca       531 PS      -0.270200
   8489 H21        17.7660    0.5080   -1.9530 hc       531 PS      -0.016200
   8490 H22        19.2560    1.4080   -2.2830 hc       531 PS      -0.016200
   8491 H1         17.6960   -0.2920   -4.2230 hc       531 PS      -0.005300
   8492 HD1        18.7160   -0.8620   -6.1130 ha       531 PS       0.124600
   8493 HE1        20.4060   -0.5520   -7.9130 ha       531 PS       0.105800
   8494 HZ         21.8560    1.4080   -7.8430 ha       531 PS       0.124800
   8495 HE2        21.5260    3.1580   -6.1330 ha       531 PS       0.105800
   8496 HD2        20.1560    2.6180   -4.1330 ha       531 PS       0.124600
   8497 C2         17.1260    1.8480   -4.0030 c3       532 PS       0.031000
   8498 C1         16.5660    2.2480   -5.4430 c3       532 PS       0.000400
   8499 CG         15.8760    0.9880   -6.1530 ca       532 PS       0.250900
   8500 CD1        14.6660    0.4880   -5.7030 ca       532 PS      -0.270200
   8501 CE1        14.1160   -0.7220   -6.2130 ca       532 PS      -0.050500
   8502 CZ         14.8260   -1.4020   -7.1530 ca       532 PS      -0.188800
   8503 CE2        16.0260   -0.8820   -7.6530 ca       532 PS      -0.050500
   8504 CD2        16.5460    0.3280   -7.1630 ca       532 PS      -0.270200
   8505 H21        16.2960    1.5880   -3.3330 hc       532 PS      -0.016200
   8506 H22        17.6060    2.7480   -3.6030 hc       532 PS      -0.016200
   8507 H1         17.4660    2.5380   -6.0130 hc       532 PS      -0.005300
   8508 HD1        14.2060    1.1580   -4.9730 ha       532 PS       0.124600
   8509 HE1        13.2760   -1.2220   -5.7530 ha       532 PS       0.105800
   8510 HZ         14.4660   -2.3920   -7.4530 ha       532 PS       0.124800
   8511 HE2        16.5460   -1.5020   -8.3730 ha       532 PS       0.105800
   8512 HD2        17.3960    0.7980   -7.6430 ha       532 PS       0.124600
   8513 C2         15.5660    3.4280   -5.3930 c3       533 PS       0.031000
   8514 C1         15.2960    4.0880   -6.7830 c3       533 PS       0.000400
   8515 CG         16.6160    4.6980   -7.2530 ca       533 PS       0.250900
   8516 CD1        17.5460    3.9380   -8.0430 ca       533 PS      -0.270200
   8517 CE1        18.8260    4.4880   -8.2830 ca       533 PS      -0.050500
   8518 CZ         19.2060    5.7480   -7.7830 ca       533 PS      -0.188800
   8519 CE2        18.2660    6.4880   -7.1330 ca       533 PS      -0.050500
   8520 CD2        16.9960    5.9280   -6.8230 ca       533 PS      -0.270200
   8521 H21        14.5860    3.1880   -4.9830 hc       533 PS      -0.016200
   8522 H22        15.9460    4.2380   -4.7530 hc       533 PS      -0.016200
   8523 H1         14.9560    3.2480   -7.4130 hc       533 PS      -0.005300
   8524 HD1        17.2760    2.9180   -8.3030 ha       533 PS       0.124600
   8525 HE1        19.5060    3.8580   -8.8430 ha       533 PS       0.105800
   8526 HZ         20.1860    6.1480   -8.0230 ha       533 PS       0.124800
   8527 HE2        18.5960    7.4480   -6.7430 ha       533 PS       0.105800
   8528 HD2        16.3160    6.5080   -6.2130 ha       533 PS       0.124600
   8529 C2         14.0860    5.1480   -6.9530 c3       534 PS       0.031000
   8530 C1         12.7460    4.8280   -6.2530 c3       534 PS       0.000400
   8531 CG         12.2460    3.4380   -6.6430 ca       534 PS       0.250900
   8532 CD1        11.8760    3.1280   -7.9430 ca       534 PS      -0.270200
   8533 CE1        11.3260    1.9280   -8.3030 ca       534 PS      -0.050500
   8534 CZ         11.2360    0.8380   -7.3630 ca       534 PS      -0.188800
   8535 CE2        11.6260    1.1780   -6.0830 ca       534 PS      -0.050500
   8536 CD2        12.0760    2.4280   -5.7130 ca       534 PS      -0.270200
   8537 H21        14.3260    6.1580   -6.5930 hc       534 PS      -0.016200
   8538 H22        13.8160    5.3080   -8.0030 hc       534 PS      -0.016200
   8539 H1         12.8760    4.8180   -5.1630 hc       534 PS      -0.005300
   8540 HD1        11.9460    3.9280   -8.6730 ha       534 PS       0.124600
   8541 HE1        10.8260    1.7780   -9.2530 ha       534 PS       0.105800
   8542 HZ         10.8260   -0.1520   -7.5230 ha       534 PS       0.124800
   8543 HE2        11.4360    0.4080   -5.3330 ha       534 PS       0.105800
   8544 HD2        12.3860    2.5380   -4.6730 ha       534 PS       0.124600
   8545 C2         11.6460    5.9480   -6.4130 c3       535 PS       0.031000
   8546 C1         10.5460    6.0680   -5.3030 c3       535 PS       0.000400
   8547 CG          9.8060    4.7480   -5.1430 ca       535 PS       0.250900
   8548 CD1         9.1060    4.2080   -6.1630 ca       535 PS      -0.270200
   8549 CE1         8.5360    2.9680   -6.0830 ca       535 PS      -0.050500
   8550 CZ          8.8560    2.1480   -4.9830 ca       535 PS      -0.188800
   8551 CE2         9.5060    2.7680   -3.8630 ca       535 PS      -0.050500
   8552 CD2         9.9460    4.0680   -3.9230 ca       535 PS      -0.270200
   8553 H21        12.2260    6.8780   -6.4330 hc       535 PS      -0.016200
   8554 H22        11.2460    5.9780   -7.4330 hc       535 PS      -0.016200
   8555 H1         11.1060    6.3180   -4.3930 hc       535 PS      -0.005300
   8556 HD1         9.0060    4.7480   -7.0930 ha       535 PS       0.124600
   8557 HE1         8.1060    2.5480   -6.9830 ha       535 PS       0.105800
   8558 HZ          8.4560    1.1380   -5.0130 ha       535 PS       0.124800
   8559 HE2         9.6160    2.1780   -2.9530 ha       535 PS       0.105800
   8560 HD2        10.3460    4.4780   -2.9930 ha       535 PS       0.124600
   8561 C2          9.4960    7.2180   -5.7730 c3       536 PS       0.031000
   8562 C1          9.1660    8.0980   -4.5130 c3       536 PS       0.000400
   8563 CG          8.8860    7.2080   -3.2930 ca       536 PS       0.250900
   8564 CD1         9.6960    7.3780   -2.1130 ca       536 PS      -0.270200
   8565 CE1         9.4760    6.5280   -1.0430 ca       536 PS      -0.050500
   8566 CZ          8.3760    5.6280   -0.9930 ca       536 PS      -0.188800
   8567 CE2         7.5560    5.5380   -2.0430 ca       536 PS      -0.050500
   8568 CD2         7.8360    6.3080   -3.2130 ca       536 PS      -0.270200
   8569 H21         9.9960    7.9280   -6.4530 hc       536 PS      -0.016200
   8570 H22         8.6260    6.7580   -6.2630 hc       536 PS      -0.016200
   8571 H1         10.0960    8.6480   -4.3330 hc       536 PS      -0.005300
   8572 HD1        10.4560    8.1380   -2.1530 ha       536 PS       0.124600
   8573 HE1        10.0860    6.6080   -0.1430 ha       536 PS       0.105800
   8574 HZ          8.2560    4.9680   -0.1430 ha       536 PS       0.124800
   8575 HE2         6.7860    4.7880   -1.9130 ha       536 PS       0.105800
   8576 HD2         7.1460    6.2380   -4.0530 ha       536 PS       0.124600
   8577 C2          8.0160    9.1480   -4.7330 c3       537 PS       0.031000
   8578 C1          8.1460   10.0180   -6.0930 c3       537 PS       0.000400
   8579 CG          6.8360   10.7180   -6.2530 ca       537 PS       0.250900
   8580 CD1         5.9460   10.4280   -7.3430 ca       537 PS      -0.270200
   8581 CE1         4.7560   11.1680   -7.4930 ca       537 PS      -0.050500
   8582 CZ          4.4260   12.1880   -6.4930 ca       537 PS      -0.188800
   8583 CE2         5.2760   12.4080   -5.3930 ca       537 PS      -0.050500
   8584 CD2         6.4360   11.6780   -5.2730 ca       537 PS      -0.270200
   8585 H21         7.0860    8.5580   -4.7530 hc       537 PS      -0.016200
   8586 H22         7.9460    9.7380   -3.8130 hc       537 PS      -0.016200
   8587 H1          8.1360    9.3180   -6.9330 hc       537 PS      -0.005300
   8588 HD1         6.2860    9.7280   -8.0930 ha       537 PS       0.124600
   8589 HE1         4.0960   10.9780   -8.3330 ha       537 PS       0.105800
   8590 HZ          3.4960   12.7380   -6.5930 ha       537 PS       0.124800
   8591 HE2         4.9660   13.1180   -4.6230 ha       537 PS       0.105800
   8592 HD2         7.0260   11.8780   -4.3830 ha       537 PS       0.124600
   8593 C2          9.4760   10.8280   -6.2130 c3       538 PS       0.031000
   8594 C1          9.4760   11.9580   -7.3430 c3       538 PS       0.000400
   8595 CG          8.7260   13.2780   -7.0030 ca       538 PS       0.250900
   8596 CD1         8.9560   13.8280   -5.7230 ca       538 PS      -0.270200
   8597 CE1         8.2160   14.9480   -5.2730 ca       538 PS      -0.050500
   8598 CZ          7.3860   15.6380   -6.1130 ca       538 PS      -0.188800
   8599 CE2         7.1060   15.1480   -7.4130 ca       538 PS      -0.050500
   8600 CD2         7.8160   13.9780   -7.8330 ca       538 PS      -0.270200
   8601 H21         9.7260   11.2880   -5.2530 hc       538 PS      -0.016200
   8602 H22        10.2360   10.0780   -6.4530 hc       538 PS      -0.016200
   8603 H1          8.8360   11.5680   -8.1530 hc       538 PS      -0.005300
   8604 HD1         9.6460   13.3780   -5.0230 ha       538 PS       0.124600
   8605 HE1         8.4360   15.1980   -4.2330 ha       538 PS       0.105800
   8606 HZ          6.9360   16.5680   -5.7830 ha       538 PS       0.124800
   8607 HE2         6.3760   15.6880   -8.0130 ha       538 PS       0.105800
   8608 HD2         7.5960   13.4380   -8.7530 ha       538 PS       0.124600
   8609 C2         10.9260   12.1880   -7.9130 c3       539 PS       0.031000
   8610 C1         12.0760   12.5380   -6.9130 c3       539 PS       0.000400
   8611 CG         12.6660   11.2480   -6.3630 ca       539 PS       0.250900
   8612 CD1        13.3760   10.3680   -7.2630 ca       539 PS      -0.270200
   8613 CE1        13.8460    9.1180   -6.8530 ca       539 PS      -0.050500
   8614 CZ         13.6760    8.7880   -5.4930 ca       539 PS      -0.188800
   8615 CE2        13.1160    9.7080   -4.5530 ca       539 PS      -0.050500
   8616 CD2        12.6060   10.9780   -5.0230 ca       539 PS      -0.270200
   8617 H21        11.0460   11.1580   -8.2630 hc       539 PS      -0.016200
   8618 H22        10.8760   12.9780   -8.6730 hc       539 PS      -0.016200
   8619 H1         11.6860   13.1680   -6.1030 hc       539 PS      -0.005300
   8620 HD1        13.5260   10.6480   -8.2930 ha       539 PS       0.124600
   8621 HE1        14.3660    8.3580   -7.4330 ha       539 PS       0.105800
   8622 HZ         14.0460    7.8680   -5.0630 ha       539 PS       0.124800
   8623 HE2        13.0760    9.3880   -3.5130 ha       539 PS       0.105800
   8624 HD2        12.1760   11.6480   -4.2930 ha       539 PS       0.124600
   8625 C2         13.0760   13.4380   -7.6430 c3       540 PS       0.031000
   8626 C1         14.2560   13.7680   -6.7030 c3       540 PS       0.000400
   8627 CG         15.2260   14.8980   -7.2230 ca       540 PS       0.250900
   8628 CD1        14.7760   16.2480   -7.3630 ca       540 PS      -0.270200
   8629 CE1        15.7660   17.1280   -7.7830 ca       540 PS      -0.050500
   8630 CZ         17.0960   16.7680   -7.9630 ca       540 PS      -0.188800
   8631 CE2        17.5260   15.4780   -7.8530 ca       540 PS      -0.050500
   8632 CD2        16.5060   14.4780   -7.5130 ca       540 PS      -0.270200
   8633 H21        13.4560   13.0680   -8.6030 hc       540 PS      -0.016200
   8634 H22        12.6760   14.4080   -7.9630 hc       540 PS      -0.016200
   8635 H1         14.8660   12.8780   -6.5330 hc       540 PS      -0.005300
   8636 HD1        13.7660   16.5680   -7.1230 ha       540 PS       0.124600
   8637 HE1        15.5060   18.1480   -8.0230 ha       540 PS       0.105800
   8638 HZ         17.7660   17.4980   -8.4030 ha       540 PS       0.124800
   8639 HE2        18.5660   15.1680   -7.9330 ha       540 PS       0.105800
   8640 HD2        16.8460   13.4480   -7.5230 ha       540 PS       0.124600
   8641 C2         12.5660  -36.1920    4.3670 c3       541 PS       0.031000
   8642 C1         13.1360  -37.0720    3.2770 c3       541 PS       0.000400
   8643 CG         12.3160  -38.3520    2.9270 ca       541 PS       0.250900
   8644 CD1        10.9260  -38.3420    2.8270 ca       541 PS      -0.270200
   8645 CE1        10.1960  -39.4920    2.7070 ca       541 PS      -0.050500
   8646 CZ         10.8860  -40.7220    2.7070 ca       541 PS      -0.188800
   8647 CE2        12.3160  -40.7620    2.6570 ca       541 PS      -0.050500
   8648 CD2        13.0060  -39.5620    2.8470 ca       541 PS      -0.270200
   8649 H21        12.5060  -36.7220    5.3270 hc       541 PS      -0.016200
   8650 H22        13.1660  -35.3320    4.6970 hc       541 PS      -0.016200
   8651 H1         14.1460  -37.3120    3.6470 hc       541 PS      -0.005300
   8652 HD1        10.3560  -37.4420    3.0470 ha       541 PS       0.124600
   8653 HE1         9.1160  -39.3920    2.5770 ha       541 PS       0.105800
   8654 HZ         10.3060  -41.6420    2.6870 ha       541 PS       0.124800
   8655 HE2        12.8260  -41.7220    2.6570 ha       541 PS       0.105800
   8656 HD2        14.0860  -39.5320    2.7470 ha       541 PS       0.124600
   8657 C2         13.4560  -36.3120    2.0070 c3       542 PS       0.031000
   8658 C1         14.4360  -36.9220    1.0070 c3       542 PS       0.000400
   8659 CG         13.7660  -38.0620    0.1670 ca       542 PS       0.250900
   8660 CD1        12.4360  -38.0320   -0.2830 ca       542 PS      -0.270200
   8661 CE1        11.8260  -39.1920   -0.7330 ca       542 PS      -0.050500
   8662 CZ         12.5560  -40.3620   -1.0330 ca       542 PS      -0.188800
   8663 CE2        13.9560  -40.3920   -0.7430 ca       542 PS      -0.050500
   8664 CD2        14.5160  -39.2520   -0.0830 ca       542 PS      -0.270200
   8665 H21        12.5660  -35.8920    1.5170 hc       542 PS      -0.016200
   8666 H22        13.9260  -35.3720    2.2970 hc       542 PS      -0.016200
   8667 H1         15.2460  -37.4020    1.5770 hc       542 PS      -0.005300
   8668 HD1        11.7060  -37.2420   -0.1630 ha       542 PS       0.124600
   8669 HE1        10.7560  -39.1520   -0.8830 ha       542 PS       0.105800
   8670 HZ         12.0760  -41.1720   -1.5830 ha       542 PS       0.124800
   8671 HE2        14.6660  -41.1720   -0.9830 ha       542 PS       0.105800
   8672 HD2        15.5560  -39.3620    0.2070 ha       542 PS       0.124600
   8673 C2         15.0760  -35.7820    0.0870 c3       543 PS       0.031000
   8674 C1         16.6160  -35.9520   -0.1630 c3       543 PS       0.000400
   8675 CG         17.1660  -37.2520   -0.7130 ca       543 PS       0.250900
   8676 CD1        17.8160  -38.1020    0.2070 ca       543 PS      -0.270200
   8677 CE1        18.1660  -39.4520   -0.1330 ca       543 PS      -0.050500
   8678 CZ         17.8460  -39.9720   -1.3830 ca       543 PS      -0.188800
   8679 CE2        17.3460  -39.0720   -2.3930 ca       543 PS      -0.050500
   8680 CD2        16.9860  -37.7320   -2.0230 ca       543 PS      -0.270200
   8681 H21        14.4160  -35.8220   -0.7830 hc       543 PS      -0.016200
   8682 H22        14.8460  -34.7920    0.4870 hc       543 PS      -0.016200
   8683 H1         17.0660  -35.6720    0.7970 hc       543 PS      -0.005300
   8684 HD1        18.1460  -37.7220    1.1770 ha       543 PS       0.124600
   8685 HE1        18.6860  -40.0420    0.6170 ha       543 PS       0.105800
   8686 HZ         18.1660  -40.9820   -1.6030 ha       543 PS       0.124800
   8687 HE2        17.1760  -39.4320   -3.4030 ha       543 PS       0.105800
   8688 HD2        16.4360  -37.1820   -2.7830 ha       543 PS       0.124600
   8689 C2         16.9360  -34.8420   -1.1630 c3       544 PS       0.031000
   8690 C1         18.4560  -34.7320   -1.6630 c3       544 PS       0.000400
   8691 CG         19.5660  -35.0520   -0.5830 ca       544 PS       0.250900
   8692 CD1        20.4360  -36.1420   -0.7130 ca       544 PS      -0.270200
   8693 CE1        21.5160  -36.2720    0.1770 ca       544 PS      -0.050500
   8694 CZ         21.7260  -35.3220    1.2070 ca       544 PS      -0.188800
   8695 CE2        20.8060  -34.3220    1.3670 ca       544 PS      -0.050500
   8696 CD2        19.7960  -34.1120    0.4170 ca       544 PS      -0.270200
   8697 H21        16.2360  -35.0620   -1.9830 hc       544 PS      -0.016200
   8698 H22        16.5360  -33.9120   -0.7430 hc       544 PS      -0.016200
   8699 H1         18.5060  -35.4620   -2.4830 hc       544 PS      -0.005300
   8700 HD1        20.3160  -36.8220   -1.5530 ha       544 PS       0.124600
   8701 HE1        22.1460  -37.1020   -0.1130 ha       544 PS       0.105800
   8702 HZ         22.5660  -35.3520    1.9070 ha       544 PS       0.124800
   8703 HE2        20.9260  -33.5520    2.1270 ha       544 PS       0.105800
   8704 HD2        19.2360  -33.1920    0.5370 ha       544 PS       0.124600
   8705 C2         18.7360  -33.3020   -2.2330 c3       545 PS       0.031000
   8706 C1         20.1460  -33.0720   -2.7930 c3       545 PS       0.000400
   8707 CG         20.4060  -33.8220   -4.1230 ca       545 PS       0.250900
   8708 CD1        21.0360  -35.0820   -4.2030 ca       545 PS      -0.270200
   8709 CE1        21.3260  -35.7220   -5.3630 ca       545 PS      -0.050500
   8710 CZ         21.0360  -35.0220   -6.5830 ca       545 PS      -0.188800
   8711 CE2        20.2960  -33.8520   -6.5630 ca       545 PS      -0.050500
   8712 CD2        19.9760  -33.2720   -5.3430 ca       545 PS      -0.270200
   8713 H21        17.8960  -32.9920   -2.8730 hc       545 PS      -0.016200
   8714 H22        18.5360  -32.5920   -1.4230 hc       545 PS      -0.016200
   8715 H1         20.8360  -33.6220   -2.1430 hc       545 PS      -0.005300
   8716 HD1        21.3060  -35.6520   -3.3230 ha       545 PS       0.124600
   8717 HE1        21.9060  -36.6320   -5.4930 ha       545 PS       0.105800
   8718 HZ         21.2760  -35.4820   -7.5330 ha       545 PS       0.124800
   8719 HE2        19.9560  -33.3320   -7.4530 ha       545 PS       0.105800
   8720 HD2        19.4360  -32.3320   -5.2330 ha       545 PS       0.124600
   8721 C2         20.5560  -31.5220   -2.7530 c3       546 PS       0.031000
   8722 C1         21.3860  -31.2120   -1.4530 c3       546 PS       0.000400
   8723 CG         22.8260  -31.7020   -1.7430 ca       546 PS       0.250900
   8724 CD1        23.2260  -32.9120   -1.2130 ca       546 PS      -0.270200
   8725 CE1        24.4360  -33.5220   -1.5630 ca       546 PS      -0.050500
   8726 CZ         25.3360  -32.8420   -2.4330 ca       546 PS      -0.188800
   8727 CE2        25.0260  -31.5620   -2.9330 ca       546 PS      -0.050500
   8728 CD2        23.7160  -31.0520   -2.6730 ca       546 PS      -0.270200
   8729 H21        21.1560  -31.2320   -3.6330 hc       546 PS      -0.016200
   8730 H22        19.6060  -30.9720   -2.7130 hc       546 PS      -0.016200
   8731 H1         21.0660  -31.7920   -0.5730 hc       546 PS      -0.005300
   8732 HD1        22.6260  -33.5020   -0.5330 ha       546 PS       0.124600
   8733 HE1        24.7160  -34.4720   -1.1230 ha       546 PS       0.105800
   8734 HZ         26.2960  -33.2820   -2.6830 ha       546 PS       0.124800
   8735 HE2        25.7460  -30.8920   -3.3930 ha       546 PS       0.105800
   8736 HD2        23.4360  -30.1020   -3.1030 ha       546 PS       0.124600
   8737 C2         21.2060  -29.6420   -0.9830 c3       547 PS       0.031000
   8738 C1         21.7960  -29.4020    0.4970 c3       547 PS       0.000400
   8739 CG         23.3060  -29.8620    0.6670 ca       547 PS       0.250900
   8740 CD1        24.3860  -29.1820    0.1070 ca       547 PS      -0.270200
   8741 CE1        25.6560  -29.6920    0.2470 ca       547 PS      -0.050500
   8742 CZ         25.8860  -30.8720    0.9870 ca       547 PS      -0.188800
   8743 CE2        24.7860  -31.6420    1.4470 ca       547 PS      -0.050500
   8744 CD2        23.5260  -31.0720    1.3970 ca       547 PS      -0.270200
   8745 H21        21.6960  -28.9620   -1.6930 hc       547 PS      -0.016200
   8746 H22        20.1360  -29.4120   -0.8930 hc       547 PS      -0.016200
   8747 H1         21.1960  -30.1220    1.0670 hc       547 PS      -0.005300
   8748 HD1        24.1860  -28.2420   -0.3930 ha       547 PS       0.124600
   8749 HE1        26.5360  -29.2120   -0.1630 ha       547 PS       0.105800
   8750 HZ         26.9160  -31.1520    1.1470 ha       547 PS       0.124800
   8751 HE2        25.0660  -32.5220    2.0170 ha       547 PS       0.105800
   8752 HD2        22.6960  -31.5620    1.8970 ha       547 PS       0.124600
   8753 C2         21.6460  -27.9120    1.0070 c3       548 PS       0.031000
   8754 C1         20.9660  -27.8420    2.3670 c3       548 PS       0.000400
   8755 CG         21.7660  -28.4320    3.5570 ca       548 PS       0.250900
   8756 CD1        21.6060  -29.8120    3.8870 ca       548 PS      -0.270200
   8757 CE1        22.3060  -30.3720    4.9370 ca       548 PS      -0.050500
   8758 CZ         23.2160  -29.7220    5.5970 ca       548 PS      -0.188800
   8759 CE2        23.4260  -28.3420    5.3370 ca       548 PS      -0.050500
   8760 CD2        22.7660  -27.6920    4.2570 ca       548 PS      -0.270200
   8761 H21        22.5360  -27.3020    1.2070 hc       548 PS      -0.016200
   8762 H22        21.0260  -27.3520    0.2970 hc       548 PS      -0.016200
   8763 H1         20.8560  -26.7620    2.5570 hc       548 PS      -0.005300
   8764 HD1        20.9460  -30.4420    3.3070 ha       548 PS       0.124600
   8765 HE1        22.2560  -31.4520    5.0670 ha       548 PS       0.105800
   8766 HZ         23.8060  -30.2020    6.3670 ha       548 PS       0.124800
   8767 HE2        24.2060  -27.8920    5.9370 ha       548 PS       0.105800
   8768 HD2        22.9060  -26.6220    4.1470 ha       548 PS       0.124600
   8769 C2         19.4560  -28.3120    2.2670 c3       549 PS       0.031000
   8770 C1         18.5160  -27.5820    3.2270 c3       549 PS       0.000400
   8771 CG         18.7560  -27.9520    4.6770 ca       549 PS       0.250900
   8772 CD1        19.6760  -27.1220    5.3670 ca       549 PS      -0.270200
   8773 CE1        19.9260  -27.4820    6.7270 ca       549 PS      -0.050500
   8774 CZ         19.0960  -28.3720    7.4370 ca       549 PS      -0.188800
   8775 CE2        18.1460  -29.1520    6.7270 ca       549 PS      -0.050500
   8776 CD2        17.9760  -28.9320    5.3870 ca       549 PS      -0.270200
   8777 H21        19.1060  -28.0120    1.2670 hc       549 PS      -0.016200
   8778 H22        19.3860  -29.4020    2.2670 hc       549 PS      -0.016200
   8779 H1         17.4960  -27.9920    3.1570 hc       549 PS      -0.005300
   8780 HD1        20.2160  -26.2820    4.9570 ha       549 PS       0.124600
   8781 HE1        20.6560  -26.9520    7.3270 ha       549 PS       0.105800
   8782 HZ         19.1860  -28.5820    8.4970 ha       549 PS       0.124800
   8783 HE2        17.5560  -29.8520    7.3070 ha       549 PS       0.105800
   8784 HD2        17.2660  -29.5520    4.8570 ha       549 PS       0.124600
   8785 C2         18.3460  -26.0220    3.0070 c3       550 PS       0.031000
   8786 C1         17.6660  -25.7020    1.6470 c3       550 PS       0.000400
   8787 CG         16.1860  -25.4720    1.7770 ca       550 PS       0.250900
   8788 CD1        15.7760  -24.3920    2.6070 ca       550 PS      -0.270200
   8789 CE1        14.4060  -24.0920    2.8070 ca       550 PS      -0.050500
   8790 CZ         13.4560  -24.8520    2.0870 ca       550 PS      -0.188800
   8791 CE2        13.8160  -26.0020    1.3770 ca       550 PS      -0.050500
   8792 CD2        15.1960  -26.2120    1.1470 ca       550 PS      -0.270200
   8793 H21        17.6760  -25.5920    3.7670 hc       550 PS      -0.016200
   8794 H22        19.2560  -25.4420    3.1870 hc       550 PS      -0.016200
   8795 H1         17.7160  -26.5620    0.9670 hc       550 PS      -0.005300
   8796 HD1        16.4460  -23.6920    3.0970 ha       550 PS       0.124600
   8797 HE1        14.0860  -23.1920    3.3270 ha       550 PS       0.105800
   8798 HZ         12.4260  -24.5120    2.1870 ha       550 PS       0.124800
   8799 HE2        13.0260  -26.5820    0.8970 ha       550 PS       0.105800
   8800 HD2        15.5060  -26.9820    0.4570 ha       550 PS       0.124600
   8801 C2         18.3560  -24.5520    0.9670 c3       551 PS       0.031000
   8802 C1         17.8260  -24.2320   -0.4430 c3       551 PS       0.000400
   8803 CG         17.5160  -25.3820   -1.3530 ca       551 PS       0.250900
   8804 CD1        16.3260  -25.3220   -2.1630 ca       551 PS      -0.270200
   8805 CE1        15.8860  -26.3820   -2.9130 ca       551 PS      -0.050500
   8806 CZ         16.6060  -27.5720   -2.9030 ca       551 PS      -0.188800
   8807 CE2        17.9460  -27.6020   -2.3730 ca       551 PS      -0.050500
   8808 CD2        18.2960  -26.5820   -1.4430 ca       551 PS      -0.270200
   8809 H21        18.3660  -23.6120    1.5370 hc       551 PS      -0.016200
   8810 H22        19.3960  -24.8720    0.8470 hc       551 PS      -0.016200
   8811 H1         16.8160  -23.8120   -0.3030 hc       551 PS      -0.005300
   8812 HD1        15.7560  -24.3920   -2.1530 ha       551 PS       0.124600
   8813 HE1        14.9960  -26.2020   -3.5230 ha       551 PS       0.105800
   8814 HZ         16.1560  -28.3620   -3.4930 ha       551 PS       0.124800
   8815 HE2        18.6160  -28.4520   -2.5030 ha       551 PS       0.105800
   8816 HD2        19.2760  -26.6520   -0.9830 ha       551 PS       0.124600
   8817 C2         18.7560  -23.1320   -1.1130 c3       552 PS       0.031000
   8818 C1         18.4660  -21.6720   -0.5730 c3       552 PS       0.000400
   8819 CG         16.9160  -21.3720   -0.4730 ca       552 PS       0.250900
   8820 CD1        16.4060  -20.5720    0.5670 ca       552 PS      -0.270200
   8821 CE1        15.0860  -20.0820    0.5270 ca       552 PS      -0.050500
   8822 CZ         14.1860  -20.6920   -0.3230 ca       552 PS      -0.188800
   8823 CE2        14.6460  -21.6320   -1.2530 ca       552 PS      -0.050500
   8824 CD2        16.0060  -21.8720   -1.4330 ca       552 PS      -0.270200
   8825 H21        19.8060  -23.4420   -1.0330 hc       552 PS      -0.016200
   8826 H22        18.5560  -23.2020   -2.1930 hc       552 PS      -0.016200
   8827 H1         19.0160  -21.5320    0.3570 hc       552 PS      -0.005300
   8828 HD1        17.0760  -20.1920    1.3270 ha       552 PS       0.124600
   8829 HE1        14.8060  -19.4620    1.3770 ha       552 PS       0.105800
   8830 HZ         13.1360  -20.4220   -0.3830 ha       552 PS       0.124800
   8831 HE2        13.9160  -22.1320   -1.8830 ha       552 PS       0.105800
   8832 HD2        16.3860  -22.3620   -2.3130 ha       552 PS       0.124600
   8833 C2         19.1460  -20.6720   -1.5130 c3       553 PS       0.031000
   8834 C1         19.3260  -19.2520   -0.8630 c3       553 PS       0.000400
   8835 CG         20.7260  -18.9720   -0.4630 ca       553 PS       0.250900
   8836 CD1        20.9360  -18.5420    0.8870 ca       553 PS      -0.270200
   8837 CE1        22.2460  -18.4120    1.3170 ca       553 PS      -0.050500
   8838 CZ         23.3560  -18.4520    0.3770 ca       553 PS      -0.188800
   8839 CE2        23.0960  -18.7220   -0.9730 ca       553 PS      -0.050500
   8840 CD2        21.7560  -19.1120   -1.3530 ca       553 PS      -0.270200
   8841 H21        20.1660  -21.0420   -1.6430 hc       553 PS      -0.016200
   8842 H22        18.7860  -20.6120   -2.5430 hc       553 PS      -0.016200
   8843 H1         18.6760  -19.1820    0.0170 hc       553 PS      -0.005300
   8844 HD1        20.1760  -18.4020    1.6470 ha       553 PS       0.124600
   8845 HE1        22.3760  -18.1620    2.3670 ha       553 PS       0.105800
   8846 HZ         24.3860  -18.1620    0.5870 ha       553 PS       0.124800
   8847 HE2        23.8660  -18.7320   -1.7430 ha       553 PS       0.105800
   8848 HD2        21.6260  -19.4020   -2.3930 ha       553 PS       0.124600
   8849 C2         18.8360  -18.1520   -1.8730 c3       554 PS       0.031000
   8850 C1         19.0260  -16.7120   -1.3730 c3       554 PS       0.000400
   8851 CG         18.0760  -16.3320   -0.2130 ca       554 PS       0.250900
   8852 CD1        18.6260  -15.7320    0.9470 ca       554 PS      -0.270200
   8853 CE1        17.8160  -15.1520    1.9370 ca       554 PS      -0.050500
   8854 CZ         16.4160  -15.3720    1.8370 ca       554 PS      -0.188800
   8855 CE2        15.8460  -16.0820    0.8070 ca       554 PS      -0.050500
   8856 CD2        16.6460  -16.6720   -0.1630 ca       554 PS      -0.270200
   8857 H21        19.4160  -18.1820   -2.8030 hc       554 PS      -0.016200
   8858 H22        17.7660  -18.3220   -2.0430 hc       554 PS      -0.016200
   8859 H1         20.0260  -16.6520   -0.9330 hc       554 PS      -0.005300
   8860 HD1        19.6860  -15.5020    0.9670 ha       554 PS       0.124600
   8861 HE1        18.3160  -14.7020    2.7870 ha       554 PS       0.105800
   8862 HZ         15.8660  -14.9820    2.6870 ha       554 PS       0.124800
   8863 HE2        14.7760  -16.2620    0.7870 ha       554 PS       0.105800
   8864 HD2        16.1160  -17.2320   -0.9330 ha       554 PS       0.124600
   8865 C2         18.7460  -15.6020   -2.5430 c3       555 PS       0.031000
   8866 C1         20.0760  -15.1520   -3.3430 c3       555 PS       0.000400
   8867 CG         21.0960  -14.5520   -2.2830 ca       555 PS       0.250900
   8868 CD1        20.8560  -13.3120   -1.6330 ca       555 PS      -0.270200
   8869 CE1        21.6260  -12.9120   -0.5330 ca       555 PS      -0.050500
   8870 CZ         22.7160  -13.6520   -0.1230 ca       555 PS      -0.188800
   8871 CE2        22.9760  -14.8820   -0.7930 ca       555 PS      -0.050500
   8872 CD2        22.1460  -15.3920   -1.8130 ca       555 PS      -0.270200
   8873 H21        18.0860  -15.9420   -3.3530 hc       555 PS      -0.016200
   8874 H22        18.2060  -14.7420   -2.1230 hc       555 PS      -0.016200
   8875 H1         20.5860  -15.9920   -3.8330 hc       555 PS      -0.005300
   8876 HD1        19.9860  -12.7520   -1.9730 ha       555 PS       0.124600
   8877 HE1        21.3960  -11.9420   -0.1130 ha       555 PS       0.105800
   8878 HZ         23.3460  -13.2320    0.6570 ha       555 PS       0.124800
   8879 HE2        23.8560  -15.4520   -0.5030 ha       555 PS       0.105800
   8880 HD2        22.3760  -16.3420   -2.2830 ha       555 PS       0.124600
   8881 C2         19.6460  -14.1320   -4.4230 c3       556 PS       0.031000
   8882 C1         20.7160  -13.3020   -5.2330 c3       556 PS       0.000400
   8883 CG         20.0660  -11.9720   -5.7030 ca       556 PS       0.250900
   8884 CD1        20.3760  -10.7420   -5.1030 ca       556 PS      -0.270200
   8885 CE1        19.9160   -9.5520   -5.6930 ca       556 PS      -0.050500
   8886 CZ         18.9760   -9.6020   -6.6830 ca       556 PS      -0.188800
   8887 CE2        18.7060  -10.8620   -7.3230 ca       556 PS      -0.050500
   8888 CD2        19.2260  -12.0420   -6.7830 ca       556 PS      -0.270200
   8889 H21        19.0760  -14.6720   -5.1930 hc       556 PS      -0.016200
   8890 H22        18.9260  -13.4620   -3.9430 hc       556 PS      -0.016200
   8891 H1         21.5860  -13.0120   -4.6330 hc       556 PS      -0.005300
   8892 HD1        20.9660  -10.8320   -4.2030 ha       556 PS       0.124600
   8893 HE1        20.1760   -8.5820   -5.2630 ha       556 PS       0.105800
   8894 HZ         18.4060   -8.7720   -7.0730 ha       556 PS       0.124800
   8895 HE2        17.8760  -10.9020   -8.0230 ha       556 PS       0.105800
   8896 HD2        18.9060  -12.9520   -7.2730 ha       556 PS       0.124600
   8897 C2         21.3460  -14.0520   -6.5030 c3       557 PS       0.031000
   8898 C1         22.8860  -14.5820   -6.4330 c3       557 PS       0.000400
   8899 CG         23.9360  -13.3420   -6.4930 ca       557 PS       0.250900
   8900 CD1        24.1360  -12.6720   -7.7130 ca       557 PS      -0.270200
   8901 CE1        24.9660  -11.5320   -7.7530 ca       557 PS      -0.050500
   8902 CZ         25.6160  -11.1020   -6.6130 ca       557 PS      -0.188800
   8903 CE2        25.3960  -11.7320   -5.3830 ca       557 PS      -0.050500
   8904 CD2        24.5960  -12.8920   -5.3530 ca       557 PS      -0.270200
   8905 H21        20.7260  -14.9420   -6.7030 hc       557 PS      -0.016200
   8906 H22        21.3060  -13.3720   -7.3630 hc       557 PS      -0.016200
   8907 H1         23.1060  -15.1820   -7.3230 hc       557 PS      -0.005300
   8908 HD1        23.7060  -13.1120   -8.6030 ha       557 PS       0.124600
   8909 HE1        24.9960  -10.9020   -8.6330 ha       557 PS       0.105800
   8910 HZ         26.2860  -10.2520   -6.5430 ha       557 PS       0.124800
   8911 HE2        25.8060  -11.4120   -4.4330 ha       557 PS       0.105800
   8912 HD2        24.6260  -13.3920   -4.3930 ha       557 PS       0.124600
   8913 C2         23.1460  -15.4420   -5.2130 c3       558 PS       0.031000
   8914 C1         24.5860  -16.1820   -5.1930 c3       558 PS       0.000400
   8915 CG         24.7260  -17.4620   -5.9330 ca       558 PS       0.250900
   8916 CD1        25.7660  -17.7720   -6.8630 ca       558 PS      -0.270200
   8917 CE1        25.8160  -19.0920   -7.4330 ca       558 PS      -0.050500
   8918 CZ         24.7560  -20.0120   -7.1730 ca       558 PS      -0.188800
   8919 CE2        23.7160  -19.6420   -6.2630 ca       558 PS      -0.050500
   8920 CD2        23.7960  -18.4220   -5.6230 ca       558 PS      -0.270200
   8921 H21        22.9860  -14.8920   -4.2830 hc       558 PS      -0.016200
   8922 H22        22.3560  -16.2020   -5.1630 hc       558 PS      -0.016200
   8923 H1         25.3060  -15.4620   -5.6130 hc       558 PS      -0.005300
   8924 HD1        26.5060  -17.0020   -7.0730 ha       558 PS       0.124600
   8925 HE1        26.5660  -19.4020   -8.1630 ha       558 PS       0.105800
   8926 HZ         24.7860  -20.9820   -7.6430 ha       558 PS       0.124800
   8927 HE2        22.9760  -20.4020   -6.0030 ha       558 PS       0.105800
   8928 HD2        22.9960  -18.3220   -4.9030 ha       558 PS       0.124600
   8929 C2         25.0260  -16.3120   -3.6430 c3       559 PS       0.031000
   8930 C1         26.5460  -16.6420   -3.4430 c3       559 PS       0.000400
   8931 CG         26.6860  -17.0820   -2.0130 ca       559 PS       0.250900
   8932 CD1        26.9960  -18.5020   -1.7530 ca       559 PS      -0.270200
   8933 CE1        27.3160  -18.9120   -0.4530 ca       559 PS      -0.050500
   8934 CZ         27.0660  -18.0420    0.5870 ca       559 PS      -0.188800
   8935 CE2        26.6560  -16.7420    0.3870 ca       559 PS      -0.050500
   8936 CD2        26.4260  -16.2520   -0.9030 ca       559 PS      -0.270200
   8937 H21        24.8560  -15.3720   -3.1130 hc       559 PS      -0.016200
   8938 H22        24.4060  -17.0920   -3.1830 hc       559 PS      -0.016200
   8939 H1         26.8360  -17.4620   -4.1130 hc       559 PS      -0.005300
   8940 HD1        27.0960  -19.1620   -2.6030 ha       559 PS       0.124600
   8941 HE1        27.5460  -19.9520   -0.2330 ha       559 PS       0.105800
   8942 HZ         27.1960  -18.5020    1.5570 ha       559 PS       0.124800
   8943 HE2        26.5260  -16.0320    1.2070 ha       559 PS       0.105800
   8944 HD2        26.1960  -15.2120   -1.0930 ha       559 PS       0.124600
   8945 C2         27.4560  -15.4020   -3.7630 c3       560 PS       0.031000
   8946 C1         28.6160  -15.8320   -4.7930 c3       560 PS       0.000400
   8947 CG         28.9160  -14.6620   -5.7430 ca       560 PS       0.250900
   8948 CD1        27.9960  -14.2420   -6.6930 ca       560 PS      -0.270200
   8949 CE1        28.2960  -13.2020   -7.5930 ca       560 PS      -0.050500
   8950 CZ         29.5760  -12.6720   -7.5930 ca       560 PS      -0.188800
   8951 CE2        30.5360  -13.0120   -6.6230 ca       560 PS      -0.050500
   8952 CD2        30.1660  -14.0220   -5.6730 ca       560 PS      -0.270200
   8953 H21        26.8960  -14.5520   -4.1630 hc       560 PS      -0.016200
   8954 H22        27.9060  -14.9620   -2.8630 hc       560 PS      -0.016200
   8955 H1         28.2760  -16.6020   -5.4930 hc       560 PS      -0.005300
   8956 HD1        26.9660  -14.5920   -6.6330 ha       560 PS       0.124600
   8957 HE1        27.5560  -12.8020   -8.2730 ha       560 PS       0.105800
   8958 HZ         29.8160  -11.8820   -8.2830 ha       560 PS       0.124800
   8959 HE2        31.5360  -12.5920   -6.5330 ha       560 PS       0.105800
   8960 HD2        30.9560  -14.2920   -4.9730 ha       560 PS       0.124600
   8961 C2         29.7660  -16.5520   -3.9930 c3       561 PS       0.031000
   8962 C1         30.8360  -17.2220   -4.9830 c3       561 PS       0.000400
   8963 CG         30.2560  -18.4120   -5.8730 ca       561 PS       0.250900
   8964 CD1        30.0060  -19.6920   -5.2630 ca       561 PS      -0.270200
   8965 CE1        29.2960  -20.6520   -6.0030 ca       561 PS      -0.050500
   8966 CZ         28.9960  -20.4320   -7.3430 ca       561 PS      -0.188800
   8967 CE2        29.2560  -19.1820   -8.0030 ca       561 PS      -0.050500
   8968 CD2        29.9660  -18.2220   -7.2930 ca       561 PS      -0.270200
   8969 H21        30.2160  -15.9220   -3.2130 hc       561 PS      -0.016200
   8970 H22        29.3360  -17.3220   -3.3530 hc       561 PS      -0.016200
   8971 H1         31.2560  -16.4720   -5.6630 hc       561 PS      -0.005300
   8972 HD1        30.0960  -19.7220   -4.1830 ha       561 PS       0.124600
   8973 HE1        29.0460  -21.5920   -5.5330 ha       561 PS       0.105800
   8974 HZ         28.6560  -21.2320   -7.9930 ha       561 PS       0.124800
   8975 HE2        29.0160  -19.1620   -9.0530 ha       561 PS       0.105800
   8976 HD2        30.1860  -17.2920   -7.8130 ha       561 PS       0.124600
   8977 C2         32.0760  -17.6620   -4.1630 c3       562 PS       0.031000
   8978 C1         33.1760  -18.3120   -5.0530 c3       562 PS       0.000400
   8979 CG         33.8360  -17.2220   -6.0330 ca       562 PS       0.250900
   8980 CD1        34.4660  -16.1120   -5.4230 ca       562 PS      -0.270200
   8981 CE1        35.0260  -15.0820   -6.1630 ca       562 PS      -0.050500
   8982 CZ         35.2060  -15.2820   -7.5230 ca       562 PS      -0.188800
   8983 CE2        34.7360  -16.4520   -8.1430 ca       562 PS      -0.050500
   8984 CD2        33.9960  -17.3920   -7.4030 ca       562 PS      -0.270200
   8985 H21        32.3960  -16.7720   -3.5930 hc       562 PS      -0.016200
   8986 H22        31.6560  -18.3420   -3.4130 hc       562 PS      -0.016200
   8987 H1         32.8360  -19.1420   -5.6930 hc       562 PS      -0.005300
   8988 HD1        34.5160  -15.9620   -4.3430 ha       562 PS       0.124600
   8989 HE1        35.4560  -14.2320   -5.6430 ha       562 PS       0.105800
   8990 HZ         35.6660  -14.4820   -8.1030 ha       562 PS       0.124800
   8991 HE2        34.9560  -16.7120   -9.1830 ha       562 PS       0.105800
   8992 HD2        33.5360  -18.2520   -7.8830 ha       562 PS       0.124600
   8993 C2         34.1760  -19.0520   -4.1530 c3       563 PS       0.031000
   8994 C1         35.2460  -19.9820   -4.7730 c3       563 PS       0.000400
   8995 CG         34.5760  -21.0120   -5.7130 ca       563 PS       0.250900
   8996 CD1        34.6260  -20.8620   -7.0730 ca       563 PS      -0.270200
   8997 CE1        34.0760  -21.8220   -7.9030 ca       563 PS      -0.050500
   8998 CZ         33.4360  -22.9220   -7.3430 ca       563 PS      -0.188800
   8999 CE2        33.4160  -23.1220   -5.9230 ca       563 PS      -0.050500
   9000 CD2        33.9560  -22.1120   -5.1030 ca       563 PS      -0.270200
   9001 H21        34.6860  -18.3220   -3.5130 hc       563 PS      -0.016200
   9002 H22        33.6360  -19.6220   -3.3930 hc       563 PS      -0.016200
   9003 H1         35.8760  -19.3720   -5.4430 hc       563 PS      -0.005300
   9004 HD1        34.9460  -19.9120   -7.5030 ha       563 PS       0.124600
   9005 HE1        34.1860  -21.7920   -8.9830 ha       563 PS       0.105800
   9006 HZ         33.1160  -23.7820   -7.9230 ha       563 PS       0.124800
   9007 HE2        32.9760  -24.0120   -5.5030 ha       563 PS       0.105800
   9008 HD2        33.9660  -22.2620   -4.0330 ha       563 PS       0.124600
   9009 C2         36.1760  -20.5720   -3.6430 c3       564 PS       0.031000
   9010 C1         37.6860  -20.3120   -3.7430 c3       564 PS       0.000400
   9011 CG         38.2560  -20.6120   -5.1330 ca       564 PS       0.250900
   9012 CD1        37.7760  -21.7520   -5.8330 ca       564 PS      -0.270200
   9013 CE1        38.2260  -22.0220   -7.1330 ca       564 PS      -0.050500
   9014 CZ         39.0160  -21.1420   -7.7730 ca       564 PS      -0.188800
   9015 CE2        39.6460  -20.1420   -7.0830 ca       564 PS      -0.050500
   9016 CD2        39.2260  -19.8320   -5.7830 ca       564 PS      -0.270200
   9017 H21        35.7260  -20.2120   -2.7030 hc       564 PS      -0.016200
   9018 H22        36.0160  -21.6420   -3.5230 hc       564 PS      -0.016200
   9019 H1         37.7460  -19.2120   -3.7030 hc       564 PS      -0.005300
   9020 HD1        37.0060  -22.4120   -5.4330 ha       564 PS       0.124600
   9021 HE1        37.7360  -22.8020   -7.7030 ha       564 PS       0.105800
   9022 HZ         39.3860  -21.3320   -8.7730 ha       564 PS       0.124800
   9023 HE2        40.3660  -19.5420   -7.6430 ha       564 PS       0.105800
   9024 HD2        39.6160  -18.9420   -5.2830 ha       564 PS       0.124600
   9025 C2        -41.5840  -21.0020   -2.5430 c3       565 PS       0.031000
   9026 C1        -40.3940  -20.1020   -2.0530 c3       565 PS       0.000400
   9027 CG        -39.2440  -20.9120   -1.3930 ca       565 PS       0.250900
   9028 CD1       -37.9140  -20.4020   -1.5430 ca       565 PS      -0.270200
   9029 CE1       -36.8940  -21.1020   -0.8630 ca       565 PS      -0.050500
   9030 CZ        -37.1540  -22.2620   -0.0730 ca       565 PS      -0.188800
   9031 CE2       -38.4840  -22.6820    0.1070 ca       565 PS      -0.050500
   9032 CD2       -39.4740  -22.0220   -0.5130 ca       565 PS      -0.270200
   9033 H21       -42.2240  -21.3220   -1.7030 hc       565 PS      -0.016200
   9034 H22       -41.2040  -21.9720   -2.8830 hc       565 PS      -0.016200
   9035 H1        -39.8740  -19.6720   -2.9130 hc       565 PS      -0.005300
   9036 HD1       -37.6940  -19.5420   -2.1530 ha       565 PS       0.124600
   9037 HE1       -35.8540  -20.7620   -0.8430 ha       565 PS       0.105800
   9038 HZ        -36.3040  -22.8320    0.3070 ha       565 PS       0.124800
   9039 HE2       -38.7340  -23.5020    0.7670 ha       565 PS       0.105800
   9040 HD2       -40.4540  -22.4420   -0.3330 ha       565 PS       0.124600
   9041 C2         39.0660  -18.9320   -1.2230 c3       566 PS       0.031000
   9042 C1         39.9860  -17.6820   -0.9930 c3       566 PS       0.000400
   9043 CG         39.6760  -17.0020    0.3270 ca       566 PS       0.250900
   9044 CD1        38.3660  -16.9520    0.8570 ca       566 PS      -0.270200
   9045 CE1        38.0660  -16.2420    2.0570 ca       566 PS      -0.050500
   9046 CZ         39.0460  -15.4520    2.6870 ca       566 PS      -0.188800
   9047 CE2        40.3460  -15.4420    2.1770 ca       566 PS      -0.050500
   9048 CD2        40.6860  -16.2320    1.0370 ca       566 PS      -0.270200
   9049 H21        38.1160  -18.5620   -1.6330 hc       566 PS      -0.016200
   9050 H22        38.8260  -19.2920   -0.2130 hc       566 PS      -0.016200
   9051 H1         41.0160  -18.0420   -0.8830 hc       566 PS      -0.005300
   9052 HD1        37.5060  -17.4020    0.3570 ha       566 PS       0.124600
   9053 HE1        37.0260  -16.2620    2.3770 ha       566 PS       0.105800
   9054 HZ         38.7760  -14.8820    3.5770 ha       566 PS       0.124800
   9055 HE2        41.0860  -14.7820    2.6270 ha       566 PS       0.105800
   9056 HD2        41.7260  -16.2420    0.7070 ha       566 PS       0.124600
   9057 C2        -40.2240  -16.7420   -2.2130 c3       567 PS       0.031000
   9058 C1        -39.4140  -15.4820   -2.1530 c3       567 PS       0.000400
   9059 CG        -37.8940  -15.6720   -2.4230 ca       567 PS       0.250900
   9060 CD1       -37.3940  -16.7820   -3.1730 ca       567 PS      -0.270200
   9061 CE1       -36.0040  -17.1120   -3.3230 ca       567 PS      -0.050500
   9062 CZ        -35.0540  -16.2720   -2.7230 ca       567 PS      -0.188800
   9063 CE2       -35.5240  -15.1320   -2.0130 ca       567 PS      -0.050500
   9064 CD2       -36.8940  -14.8320   -1.8330 ca       567 PS      -0.270200
   9065 H21       -40.1140  -17.2620   -3.1730 hc       567 PS      -0.016200
   9066 H22       -41.3040  -16.5120   -2.1530 hc       567 PS      -0.016200
   9067 H1        -39.4740  -15.0620   -1.1430 hc       567 PS      -0.005300
   9068 HD1       -38.1040  -17.4520   -3.6430 ha       567 PS       0.124600
   9069 HE1       -35.7140  -17.9420   -3.9630 ha       567 PS       0.105800
   9070 HZ        -33.9940  -16.5020   -2.7130 ha       567 PS       0.124800
   9071 HE2       -34.7840  -14.5020   -1.5230 ha       567 PS       0.105800
   9072 HD2       -37.2140  -14.0020   -1.2130 ha       567 PS       0.124600
   9073 C2         39.9360  -14.2720   -2.8730 c3       568 PS       0.031000
   9074 C1         40.3960  -14.1520   -4.3530 c3       568 PS       0.000400
   9075 CG         39.9260  -15.1920   -5.3930 ca       568 PS       0.250900
   9076 CD1        40.8360  -15.7320   -6.3130 ca       568 PS      -0.270200
   9077 CE1        40.4060  -16.5120   -7.3730 ca       568 PS      -0.050500
   9078 CZ         39.1060  -16.9620   -7.4130 ca       568 PS      -0.188800
   9079 CE2        38.1760  -16.5820   -6.4430 ca       568 PS      -0.050500
   9080 CD2        38.6160  -15.7220   -5.4130 ca       568 PS      -0.270200
   9081 H21        38.8360  -14.3320   -2.8730 hc       568 PS      -0.016200
   9082 H22        40.2260  -13.3320   -2.3930 hc       568 PS      -0.016200
   9083 H1         41.4960  -14.1620   -4.2830 hc       568 PS      -0.005300
   9084 HD1        41.8460  -15.3620   -6.2030 ha       568 PS       0.124600
   9085 HE1        41.0760  -16.8920   -8.1330 ha       568 PS       0.105800
   9086 HZ         38.8160  -17.6720   -8.1830 ha       568 PS       0.124800
   9087 HE2        37.1760  -17.0020   -6.4630 ha       568 PS       0.105800
   9088 HD2        37.9360  -15.4620   -4.6030 ha       568 PS       0.124600
   9089 C2         40.1360  -12.7820   -4.9230 c3       569 PS       0.031000
   9090 C1         40.7560  -12.4420   -6.2830 c3       569 PS       0.000400
   9091 CG         40.1160  -11.1420   -6.7530 ca       569 PS       0.250900
   9092 CD1        40.8060   -9.9120   -6.6830 ca       569 PS      -0.270200
   9093 CE1        40.1360   -8.7620   -7.1730 ca       569 PS      -0.050500
   9094 CZ         38.9060   -8.8620   -7.8730 ca       569 PS      -0.188800
   9095 CE2        38.3160  -10.0620   -8.0630 ca       569 PS      -0.050500
   9096 CD2        38.9060  -11.2120   -7.4930 ca       569 PS      -0.270200
   9097 H21        39.0460  -12.6520   -5.0030 hc       569 PS      -0.016200
   9098 H22        40.5360  -12.0820   -4.1830 hc       569 PS      -0.016200
   9099 H1         40.3160  -13.1020   -7.0430 hc       569 PS      -0.005300
   9100 HD1        41.7860   -9.8420   -6.2130 ha       569 PS       0.124600
   9101 HE1        40.6360   -7.8020   -7.0830 ha       569 PS       0.105800
   9102 HZ         38.4060   -8.0320   -8.3630 ha       569 PS       0.124800
   9103 HE2        37.3760  -10.1020   -8.6030 ha       569 PS       0.105800
   9104 HD2        38.3560  -12.1420   -7.5130 ha       569 PS       0.124600
   9105 C2        -37.6940  -12.4420   -6.2330 c3       570 PS       0.031000
   9106 C1        -37.0540  -12.2420   -7.6830 c3       570 PS       0.000400
   9107 CG        -35.7640  -11.5720   -7.7230 ca       570 PS       0.250900
   9108 CD1       -34.6040  -12.2820   -7.6130 ca       570 PS      -0.270200
   9109 CE1       -33.3640  -11.6820   -7.4630 ca       570 PS      -0.050500
   9110 CZ        -33.2640  -10.3120   -7.4030 ca       570 PS      -0.188800
   9111 CE2       -34.4440   -9.5220   -7.5830 ca       570 PS      -0.050500
   9112 CD2       -35.6940  -10.1720   -7.8030 ca       570 PS      -0.270200
   9113 H21       -37.2440  -11.6120   -5.6730 hc       570 PS      -0.016200
   9114 H22       -37.2940  -13.3420   -5.7330 hc       570 PS      -0.016200
   9115 H1        -37.1240  -13.1420   -8.3030 hc       570 PS      -0.005300
   9116 HD1       -34.7040  -13.3420   -7.3730 ha       570 PS       0.124600
   9117 HE1       -32.4740  -12.3020   -7.4330 ha       570 PS       0.105800
   9118 HZ        -32.3140   -9.8120   -7.2530 ha       570 PS       0.124800
   9119 HE2       -34.2740   -8.4420   -7.5330 ha       570 PS       0.105800
   9120 HD2       -36.6540   -9.6620   -7.8830 ha       570 PS       0.124600
   9121 C2        -22.0840   -9.6120    2.0070 c3       571 PS       0.031000
   9122 C1        -23.4240   -9.8320    2.7870 c3       571 PS       0.000400
   9123 CG        -23.4940   -9.0320    4.0970 ca       571 PS       0.250900
   9124 CD1       -23.1340   -7.6420    4.0970 ca       571 PS      -0.270200
   9125 CE1       -22.9640   -6.9020    5.2570 ca       571 PS      -0.050500
   9126 CZ        -23.3140   -7.5520    6.4870 ca       571 PS      -0.188800
   9127 CE2       -23.7240   -8.8920    6.5270 ca       571 PS      -0.050500
   9128 CD2       -23.7240   -9.6920    5.3270 ca       571 PS      -0.270200
   9129 H21       -21.2140   -9.6520    2.6770 hc       571 PS      -0.016200
   9130 H22       -22.1240   -8.5820    1.6170 hc       571 PS      -0.016200
   9131 H1        -23.4040  -10.8520    3.1770 hc       571 PS      -0.005300
   9132 HD1       -23.0640   -7.1020    3.1570 ha       571 PS       0.124600
   9133 HE1       -22.5240   -5.9020    5.2470 ha       571 PS       0.105800
   9134 HZ        -23.0840   -7.0420    7.4170 ha       571 PS       0.124800
   9135 HE2       -23.8440   -9.4020    7.4870 ha       571 PS       0.105800
   9136 HD2       -23.8840  -10.7620    5.3970 ha       571 PS       0.124600
   9137 C2        -24.6240   -9.4620    1.8970 c3       572 PS       0.031000
   9138 C1        -24.9340  -10.3520    0.6870 c3       572 PS       0.000400
   9139 CG        -23.8640  -10.2920   -0.3830 ca       572 PS       0.250900
   9140 CD1       -23.7340   -9.0920   -1.0930 ca       572 PS      -0.270200
   9141 CE1       -22.7240   -8.9420   -2.1130 ca       572 PS      -0.050500
   9142 CZ        -21.7640   -9.9620   -2.3230 ca       572 PS      -0.188800
   9143 CE2       -21.8040  -11.1520   -1.5130 ca       572 PS      -0.050500
   9144 CD2       -22.9240  -11.3220   -0.6230 ca       572 PS      -0.270200
   9145 H21       -25.4240   -9.3320    2.6470 hc       572 PS      -0.016200
   9146 H22       -24.4840   -8.4420    1.5170 hc       572 PS      -0.016200
   9147 H1        -25.8640  -10.0320    0.2070 hc       572 PS      -0.005300
   9148 HD1       -24.4040   -8.2720   -0.8530 ha       572 PS       0.124600
   9149 HE1       -22.7140   -8.1020   -2.8030 ha       572 PS       0.105800
   9150 HZ        -20.9540   -9.8920   -3.0430 ha       572 PS       0.124800
   9151 HE2       -21.1040  -11.9620   -1.6730 ha       572 PS       0.105800
   9152 HD2       -23.0940  -12.2520   -0.0830 ha       572 PS       0.124600
   9153 C2        -25.3140  -11.8020    1.2070 c3       573 PS       0.031000
   9154 C1        -26.1540  -12.7220    0.3470 c3       573 PS       0.000400
   9155 CG        -25.5640  -13.1120   -1.0030 ca       573 PS       0.250900
   9156 CD1       -26.1240  -12.6120   -2.1630 ca       573 PS      -0.270200
   9157 CE1       -25.6240  -13.0020   -3.4030 ca       573 PS      -0.050500
   9158 CZ        -24.5040  -13.8620   -3.5230 ca       573 PS      -0.188800
   9159 CE2       -23.8840  -14.2820   -2.3430 ca       573 PS      -0.050500
   9160 CD2       -24.4040  -13.9720   -1.1030 ca       573 PS      -0.270200
   9161 H21       -24.4240  -12.3420    1.5570 hc       573 PS      -0.016200
   9162 H22       -25.9940  -11.7920    2.0670 hc       573 PS      -0.016200
   9163 H1        -27.0840  -12.1620    0.1770 hc       573 PS      -0.005300
   9164 HD1       -26.8540  -11.8120   -2.1130 ha       573 PS       0.124600
   9165 HE1       -26.0840  -12.5420   -4.2730 ha       573 PS       0.105800
   9166 HZ        -24.1840  -14.1720   -4.5130 ha       573 PS       0.124800
   9167 HE2       -23.0440  -14.9420   -2.5230 ha       573 PS       0.105800
   9168 HD2       -24.1540  -14.5020   -0.1930 ha       573 PS       0.124600
   9169 C2        -26.5440  -14.0220    1.0170 c3       574 PS       0.031000
   9170 C1        -27.1540  -15.1920    0.2470 c3       574 PS       0.000400
   9171 CG        -28.3840  -14.8220   -0.6030 ca       574 PS       0.250900
   9172 CD1       -28.3640  -15.0720   -1.9430 ca       574 PS      -0.270200
   9173 CE1       -29.4940  -14.8920   -2.7130 ca       574 PS      -0.050500
   9174 CZ        -30.7440  -14.5220   -2.1330 ca       574 PS      -0.188800
   9175 CE2       -30.6340  -14.1520   -0.7730 ca       574 PS      -0.050500
   9176 CD2       -29.5640  -14.3520    0.0370 ca       574 PS      -0.270200
   9177 H21       -25.6940  -14.3020    1.6470 hc       574 PS      -0.016200
   9178 H22       -27.4140  -13.8220    1.6670 hc       574 PS      -0.016200
   9179 H1        -26.3640  -15.5620   -0.4230 hc       574 PS      -0.005300
   9180 HD1       -27.4840  -15.4820   -2.4230 ha       574 PS       0.124600
   9181 HE1       -29.4840  -15.0320   -3.7930 ha       574 PS       0.105800
   9182 HZ        -31.7040  -14.5120   -2.6330 ha       574 PS       0.124800
   9183 HE2       -31.5440  -13.7020   -0.3930 ha       574 PS       0.105800
   9184 HD2       -29.7140  -14.0120    1.0570 ha       574 PS       0.124600
   9185 C2        -27.4740  -16.5120    1.1470 c3       575 PS       0.031000
   9186 C1        -27.7440  -17.8420    0.2770 c3       575 PS       0.000400
   9187 CG        -26.4440  -18.4720   -0.1930 ca       575 PS       0.250900
   9188 CD1       -26.0740  -18.2220   -1.5630 ca       575 PS      -0.270200
   9189 CE1       -24.8740  -18.7120   -2.0530 ca       575 PS      -0.050500
   9190 CZ        -24.0440  -19.5120   -1.2230 ca       575 PS      -0.188800
   9191 CE2       -24.3840  -19.6920    0.1470 ca       575 PS      -0.050500
   9192 CD2       -25.5740  -19.1220    0.6170 ca       575 PS      -0.270200
   9193 H21       -26.6340  -16.6720    1.8370 hc       575 PS      -0.016200
   9194 H22       -28.3440  -16.1820    1.7270 hc       575 PS      -0.016200
   9195 H1        -28.3840  -17.5520   -0.5630 hc       575 PS      -0.005300
   9196 HD1       -26.6840  -17.6020   -2.2130 ha       575 PS       0.124600
   9197 HE1       -24.5340  -18.4820   -3.0630 ha       575 PS       0.105800
   9198 HZ        -23.1240  -20.0020   -1.5030 ha       575 PS       0.124800
   9199 HE2       -23.7240  -20.3420    0.7070 ha       575 PS       0.105800
   9200 HD2       -25.8940  -19.2620    1.6470 ha       575 PS       0.124600
   9201 C2        -28.5540  -18.8120    1.1870 c3       576 PS       0.031000
   9202 C1        -30.0140  -18.4820    1.4570 c3       576 PS       0.000400
   9203 CG        -31.0340  -19.4720    0.8870 ca       576 PS       0.250900
   9204 CD1       -32.0340  -19.0020    0.0170 ca       576 PS      -0.270200
   9205 CE1       -32.9940  -19.8720   -0.5130 ca       576 PS      -0.050500
   9206 CZ        -32.8840  -21.2320   -0.2330 ca       576 PS      -0.188800
   9207 CE2       -31.8540  -21.7420    0.6070 ca       576 PS      -0.050500
   9208 CD2       -30.9340  -20.8520    1.2170 ca       576 PS      -0.270200
   9209 H21       -28.4640  -19.8420    0.7970 hc       576 PS      -0.016200
   9210 H22       -28.0340  -18.8020    2.1570 hc       576 PS      -0.016200
   9211 H1        -30.2540  -17.6020    0.8370 hc       576 PS      -0.005300
   9212 HD1       -32.0440  -17.9720   -0.3430 ha       576 PS       0.124600
   9213 HE1       -33.7840  -19.5420   -1.1730 ha       576 PS       0.105800
   9214 HZ        -33.6940  -21.8320   -0.6430 ha       576 PS       0.124800
   9215 HE2       -31.8640  -22.8020    0.8170 ha       576 PS       0.105800
   9216 HD2       -30.1740  -21.3120    1.8270 ha       576 PS       0.124600
   9217 C2        -30.3640  -18.0420    2.9370 c3       577 PS       0.031000
   9218 C1        -31.8540  -17.5220    3.1870 c3       577 PS       0.000400
   9219 CG        -32.0440  -17.5720    4.6970 ca       577 PS       0.250900
   9220 CD1       -31.2640  -16.7820    5.5670 ca       577 PS      -0.270200
   9221 CE1       -31.4940  -16.7520    6.9570 ca       577 PS      -0.050500
   9222 CZ        -32.6040  -17.4520    7.5870 ca       577 PS      -0.188800
   9223 CE2       -33.3140  -18.3320    6.7270 ca       577 PS      -0.050500
   9224 CD2       -33.1140  -18.2820    5.3070 ca       577 PS      -0.270200
   9225 H21       -30.0940  -18.7920    3.6870 hc       577 PS      -0.016200
   9226 H22       -29.6640  -17.2220    3.1570 hc       577 PS      -0.016200
   9227 H1        -32.6140  -18.2320    2.8470 hc       577 PS      -0.005300
   9228 HD1       -30.4540  -16.2120    5.1170 ha       577 PS       0.124600
   9229 HE1       -30.8740  -16.1820    7.6470 ha       577 PS       0.105800
   9230 HZ        -32.8940  -17.3520    8.6270 ha       577 PS       0.124800
   9231 HE2       -34.1540  -18.9220    7.0970 ha       577 PS       0.105800
   9232 HD2       -33.8040  -18.9020    4.7370 ha       577 PS       0.124600
   9233 C2        -32.0140  -16.0820    2.4670 c3       578 PS       0.031000
   9234 C1        -33.5340  -15.6020    2.6370 c3       578 PS       0.000400
   9235 CG        -34.6140  -16.6220    2.1770 ca       578 PS       0.250900
   9236 CD1       -35.6140  -16.9520    3.0470 ca       578 PS      -0.270200
   9237 CE1       -36.6740  -17.8420    2.5970 ca       578 PS      -0.050500
   9238 CZ        -36.6440  -18.3020    1.2870 ca       578 PS      -0.188800
   9239 CE2       -35.7240  -17.8020    0.3570 ca       578 PS      -0.050500
   9240 CD2       -34.7040  -17.0020    0.7970 ca       578 PS      -0.270200
   9241 H21       -31.2740  -15.4220    2.9370 hc       578 PS      -0.016200
   9242 H22       -31.8340  -16.0820    1.3870 hc       578 PS      -0.016200
   9243 H1        -33.5840  -15.4020    3.7170 hc       578 PS      -0.005300
   9244 HD1       -35.5840  -16.6920    4.1070 ha       578 PS       0.124600
   9245 HE1       -37.5240  -17.9720    3.2670 ha       578 PS       0.105800
   9246 HZ        -37.4240  -18.9920    0.9570 ha       578 PS       0.124800
   9247 HE2       -35.8240  -18.0920   -0.6830 ha       578 PS       0.105800
   9248 HD2       -33.9040  -16.6920    0.1270 ha       578 PS       0.124600
   9249 C2        -33.7640  -14.2120    1.8670 c3       579 PS       0.031000
   9250 C1        -34.9040  -13.3620    2.5170 c3       579 PS       0.000400
   9251 CG        -34.3440  -12.7620    3.8970 ca       579 PS       0.250900
   9252 CD1       -34.8340  -13.3220    5.1170 ca       579 PS      -0.270200
   9253 CE1       -34.3440  -12.8220    6.2970 ca       579 PS      -0.050500
   9254 CZ        -33.3440  -11.8420    6.2870 ca       579 PS      -0.188800
   9255 CE2       -32.7840  -11.3320    5.0770 ca       579 PS      -0.050500
   9256 CD2       -33.3440  -11.8120    3.9170 ca       579 PS      -0.270200
   9257 H21       -32.7840  -13.7320    1.7570 hc       579 PS      -0.016200
   9258 H22       -34.0940  -14.4220    0.8370 hc       579 PS      -0.016200
   9259 H1        -35.6440  -14.0820    2.8970 hc       579 PS      -0.005300
   9260 HD1       -35.5840  -14.1020    5.0770 ha       579 PS       0.124600
   9261 HE1       -34.6640  -13.2720    7.2270 ha       579 PS       0.105800
   9262 HZ        -32.8940  -11.4720    7.2070 ha       579 PS       0.124800
   9263 HE2       -32.0940  -10.4920    5.0770 ha       579 PS       0.105800
   9264 HD2       -32.9340  -11.4720    2.9670 ha       579 PS       0.124600
   9265 C2        -35.4640  -12.2920    1.5170 c3       580 PS       0.031000
   9266 C1        -34.4840  -11.4220    0.6070 c3       580 PS       0.000400
   9267 CG        -34.6840  -11.6720   -0.8930 ca       580 PS       0.250900
   9268 CD1       -33.6540  -11.9320   -1.7730 ca       580 PS      -0.270200
   9269 CE1       -33.7840  -11.8820   -3.1530 ca       580 PS      -0.050500
   9270 CZ        -34.9940  -11.5720   -3.7730 ca       580 PS      -0.188800
   9271 CE2       -36.1140  -11.4320   -2.9530 ca       580 PS      -0.050500
   9272 CD2       -35.9440  -11.4120   -1.5330 ca       580 PS      -0.270200
   9273 H21       -36.1840  -12.8220    0.8770 hc       580 PS      -0.016200
   9274 H22       -36.1840  -11.6420    2.0270 hc       580 PS      -0.016200
   9275 H1        -33.4340  -11.7220    0.7470 hc       580 PS      -0.005300
   9276 HD1       -32.7040  -12.3120   -1.4030 ha       580 PS       0.124600
   9277 HE1       -32.8640  -12.0320   -3.7130 ha       580 PS       0.105800
   9278 HZ        -35.0440  -11.2820   -4.8230 ha       580 PS       0.124800
   9279 HE2       -37.0740  -11.1820   -3.4030 ha       580 PS       0.105800
   9280 HD2       -36.7540  -11.1020   -0.8730 ha       580 PS       0.124600
   9281 C2        -34.6940   -9.9020    0.9770 c3       581 PS       0.031000
   9282 C1        -33.5640   -9.0420    0.3370 c3       581 PS       0.000400
   9283 CG        -32.1740   -9.3520    0.9070 ca       581 PS       0.250900
   9284 CD1       -31.2940  -10.1420    0.1270 ca       581 PS      -0.270200
   9285 CE1       -30.0040  -10.3420    0.6670 ca       581 PS      -0.050500
   9286 CZ        -29.6240   -9.9620    1.9370 ca       581 PS      -0.188800
   9287 CE2       -30.5340   -9.4320    2.8370 ca       581 PS      -0.050500
   9288 CD2       -31.8240   -9.0620    2.2370 ca       581 PS      -0.270200
   9289 H21       -35.7240   -9.6720    0.6770 hc       581 PS      -0.016200
   9290 H22       -34.6240   -9.7620    2.0670 hc       581 PS      -0.016200
   9291 H1        -33.6040   -9.2720   -0.7430 hc       581 PS      -0.005300
   9292 HD1       -31.4540  -10.4120   -0.9130 ha       581 PS       0.124600
   9293 HE1       -29.2640  -10.8220    0.0270 ha       581 PS       0.105800
   9294 HZ        -28.6140  -10.2420    2.2370 ha       581 PS       0.124800
   9295 HE2       -30.2640   -9.2220    3.8670 ha       581 PS       0.105800
   9296 HD2       -32.5340   -8.5620    2.9070 ha       581 PS       0.124600
   9297 C2        -33.9140   -7.5620    0.3870 c3       582 PS       0.031000
   9298 C1        -33.2540   -6.5820   -0.6830 c3       582 PS       0.000400
   9299 CG        -33.9240   -6.7020   -2.1130 ca       582 PS       0.250900
   9300 CD1       -35.0640   -5.8520   -2.3530 ca       582 PS      -0.270200
   9301 CE1       -35.8840   -6.1020   -3.4430 ca       582 PS      -0.050500
   9302 CZ        -35.5140   -7.0820   -4.3630 ca       582 PS      -0.188800
   9303 CE2       -34.4140   -7.9120   -4.1330 ca       582 PS      -0.050500
   9304 CD2       -33.6340   -7.6820   -3.0130 ca       582 PS      -0.270200
   9305 H21       -34.9840   -7.3020    0.3270 hc       582 PS      -0.016200
   9306 H22       -33.5940   -7.2520    1.3870 hc       582 PS      -0.016200
   9307 H1        -33.4440   -5.5420   -0.3930 hc       582 PS      -0.005300
   9308 HD1       -35.4340   -5.1820   -1.5830 ha       582 PS       0.124600
   9309 HE1       -36.8040   -5.5620   -3.6330 ha       582 PS       0.105800
   9310 HZ        -36.0740   -7.2320   -5.2730 ha       582 PS       0.124800
   9311 HE2       -34.2340   -8.7520   -4.7930 ha       582 PS       0.105800
   9312 HD2       -32.8140   -8.3720   -2.8530 ha       582 PS       0.124600
   9313 C2        -31.6940   -6.6620   -0.7230 c3       583 PS       0.031000
   9314 C1        -30.9640   -5.3520   -0.9330 c3       583 PS       0.000400
   9315 CG        -29.5140   -5.4120   -0.3330 ca       583 PS       0.250900
   9316 CD1       -28.7040   -6.5220   -0.5330 ca       583 PS      -0.270200
   9317 CE1       -27.3940   -6.6120   -0.0930 ca       583 PS      -0.050500
   9318 CZ        -26.9940   -5.5920    0.6570 ca       583 PS      -0.188800
   9319 CE2       -27.7740   -4.5020    0.9870 ca       583 PS      -0.050500
   9320 CD2       -29.0240   -4.3220    0.4270 ca       583 PS      -0.270200
   9321 H21       -31.3440   -7.0420    0.2470 hc       583 PS      -0.016200
   9322 H22       -31.3340   -7.3320   -1.5230 hc       583 PS      -0.016200
   9323 H1        -31.5740   -4.6520   -0.3630 hc       583 PS      -0.005300
   9324 HD1       -29.1140   -7.3120   -1.1630 ha       583 PS       0.124600
   9325 HE1       -26.8340   -7.5020   -0.3430 ha       583 PS       0.105800
   9326 HZ        -26.0140   -5.7120    1.1170 ha       583 PS       0.124800
   9327 HE2       -27.4640   -3.7920    1.7470 ha       583 PS       0.105800
   9328 HD2       -29.6140   -3.4520    0.6970 ha       583 PS       0.124600
   9329 C2        -30.9840   -4.9020   -2.4030 c3       584 PS       0.031000
   9330 C1        -31.0840   -3.3920   -2.5930 c3       584 PS       0.000400
   9331 CG        -32.4840   -2.8120   -2.2530 ca       584 PS       0.250900
   9332 CD1       -32.5640   -2.0120   -1.0630 ca       584 PS      -0.270200
   9333 CE1       -33.8140   -1.6120   -0.6430 ca       584 PS      -0.050500
   9334 CZ        -34.9340   -1.9120   -1.4030 ca       584 PS      -0.188800
   9335 CE2       -34.8540   -2.7120   -2.5530 ca       584 PS      -0.050500
   9336 CD2       -33.6140   -3.0520   -3.0730 ca       584 PS      -0.270200
   9337 H21       -30.1440   -5.2720   -3.0030 hc       584 PS      -0.016200
   9338 H22       -31.8740   -5.3820   -2.8430 hc       584 PS      -0.016200
   9339 H1        -30.3740   -2.9420   -1.8930 hc       584 PS      -0.005300
   9340 HD1       -31.7040   -1.7920   -0.4330 ha       584 PS       0.124600
   9341 HE1       -33.9240   -1.0520    0.2770 ha       584 PS       0.105800
   9342 HZ        -35.9040   -1.6520   -0.9930 ha       584 PS       0.124800
   9343 HE2       -35.7040   -3.1720   -3.0330 ha       584 PS       0.105800
   9344 HD2       -33.5740   -3.7320   -3.9330 ha       584 PS       0.124600
   9345 C2        -30.5340   -3.0220   -4.0130 c3       585 PS       0.031000
   9346 C1        -30.4440   -1.4820   -4.3230 c3       585 PS       0.000400
   9347 CG        -31.4240   -1.1620   -5.4830 ca       585 PS       0.250900
   9348 CD1       -32.5840   -0.3820   -5.1430 ca       585 PS      -0.270200
   9349 CE1       -33.4340    0.1780   -6.1130 ca       585 PS      -0.050500
   9350 CZ        -33.1540   -0.1120   -7.4330 ca       585 PS      -0.188800
   9351 CE2       -32.0240   -0.9120   -7.8630 ca       585 PS      -0.050500
   9352 CD2       -31.1640   -1.4120   -6.8730 ca       585 PS      -0.270200
   9353 H21       -29.5340   -3.4620   -4.1230 hc       585 PS      -0.016200
   9354 H22       -31.0740   -3.5320   -4.8230 hc       585 PS      -0.016200
   9355 H1        -30.7040   -0.9620   -3.3930 hc       585 PS      -0.005300
   9356 HD1       -32.8240   -0.2920   -4.0830 ha       585 PS       0.124600
   9357 HE1       -34.2240    0.8380   -5.7830 ha       585 PS       0.105800
   9358 HZ        -33.6740    0.4580   -8.1930 ha       585 PS       0.124800
   9359 HE2       -31.9140   -1.1320   -8.9230 ha       585 PS       0.105800
   9360 HD2       -30.2540   -1.8920   -7.2130 ha       585 PS       0.124600
   9361 C2        -28.9840   -1.0520   -4.6330 c3       586 PS       0.031000
   9362 C1        -28.8040    0.4180   -5.1730 c3       586 PS       0.000400
   9363 CG        -27.4040    0.5080   -5.8330 ca       586 PS       0.250900
   9364 CD1       -27.2640    0.8980   -7.1830 ca       586 PS      -0.270200
   9365 CE1       -25.9840    1.0780   -7.7630 ca       586 PS      -0.050500
   9366 CZ        -24.8440    0.8080   -7.0430 ca       586 PS      -0.188800
   9367 CE2       -24.8940    0.4580   -5.6630 ca       586 PS      -0.050500
   9368 CD2       -26.2040    0.3280   -5.1330 ca       586 PS      -0.270200
   9369 H21       -28.3840   -1.1720   -3.7230 hc       586 PS      -0.016200
   9370 H22       -28.4640   -1.7120   -5.3330 hc       586 PS      -0.016200
   9371 H1        -29.5140    0.5380   -6.0030 hc       586 PS      -0.005300
   9372 HD1       -28.1140    1.1780   -7.7930 ha       586 PS       0.124600
   9373 HE1       -25.9140    1.1780   -8.8430 ha       586 PS       0.105800
   9374 HZ        -23.9040    0.7780   -7.5830 ha       586 PS       0.124800
   9375 HE2       -24.0040    0.2880   -5.0530 ha       586 PS       0.105800
   9376 HD2       -26.2840    0.0780   -4.0730 ha       586 PS       0.124600
   9377 C2        -28.9940    1.4680   -3.9930 c3       587 PS       0.031000
   9378 C1        -28.8440    2.9480   -4.5330 c3       587 PS       0.000400
   9379 CG        -29.6740    3.1780   -5.8630 ca       587 PS       0.250900
   9380 CD1       -28.9740    3.7680   -6.9830 ca       587 PS      -0.270200
   9381 CE1       -29.7640    4.2380   -8.0730 ca       587 PS      -0.050500
   9382 CZ        -31.1540    4.0880   -8.0330 ca       587 PS      -0.188800
   9383 CE2       -31.7740    3.4180   -7.0030 ca       587 PS      -0.050500
   9384 CD2       -31.0440    2.9680   -5.9030 ca       587 PS      -0.270200
   9385 H21       -30.0040    1.3380   -3.5730 hc       587 PS      -0.016200
   9386 H22       -28.3440    1.2180   -3.1430 hc       587 PS      -0.016200
   9387 H1        -27.8240    3.2080   -4.8430 hc       587 PS      -0.005300
   9388 HD1       -27.8840    3.8580   -7.0430 ha       587 PS       0.124600
   9389 HE1       -29.3640    4.8180   -8.8930 ha       587 PS       0.105800
   9390 HZ        -31.7940    4.5180   -8.8030 ha       587 PS       0.124800
   9391 HE2       -32.7940    3.0880   -7.1530 ha       587 PS       0.105800
   9392 HD2       -31.5440    2.4380   -5.0930 ha       587 PS       0.124600
   9393 C2        -29.3640    3.9780   -3.3630 c3       588 PS       0.031000
   9394 C1        -29.7040    5.4680   -3.8330 c3       588 PS       0.000400
   9395 CG        -28.6040    6.0280   -4.7230 ca       588 PS       0.250900
   9396 CD1       -28.9140    6.6880   -5.9330 ca       588 PS      -0.270200
   9397 CE1       -27.8740    7.1280   -6.7330 ca       588 PS      -0.050500
   9398 CZ        -26.5240    7.1480   -6.3130 ca       588 PS      -0.188800
   9399 CE2       -26.2540    6.5180   -5.1030 ca       588 PS      -0.050500
   9400 CD2       -27.3140    6.0580   -4.2730 ca       588 PS      -0.270200
   9401 H21       -30.2540    3.5180   -2.9130 hc       588 PS      -0.016200
   9402 H22       -28.6040    3.9480   -2.5730 hc       588 PS      -0.016200
   9403 H1        -30.6740    5.3780   -4.3430 hc       588 PS      -0.005300
   9404 HD1       -29.9240    6.6080   -6.3230 ha       588 PS       0.124600
   9405 HE1       -28.1140    7.5380   -7.7130 ha       588 PS       0.105800
   9406 HZ        -25.6840    7.5180   -6.8930 ha       588 PS       0.124800
   9407 HE2       -25.2540    6.3980   -4.7030 ha       588 PS       0.105800
   9408 HD2       -27.0340    5.5680   -3.3430 ha       588 PS       0.124600
   9409 C2        -29.8940    6.3480   -2.5630 c3       589 PS       0.031000
   9410 C1        -30.7140    7.6780   -2.8630 c3       589 PS       0.000400
   9411 CG        -30.3440    8.6780   -1.7230 ca       589 PS       0.250900
   9412 CD1       -30.0040   10.0080   -1.9830 ca       589 PS      -0.270200
   9413 CE1       -29.7440   10.9080   -0.9530 ca       589 PS      -0.050500
   9414 CZ        -29.6840   10.4580    0.3570 ca       589 PS      -0.188800
   9415 CE2       -30.1340    9.1680    0.6170 ca       589 PS      -0.050500
   9416 CD2       -30.4140    8.3080   -0.4130 ca       589 PS      -0.270200
   9417 H21       -30.5240    5.8480   -1.8130 hc       589 PS      -0.016200
   9418 H22       -28.8740    6.4480   -2.1730 hc       589 PS      -0.016200
   9419 H1        -30.3740    8.0280   -3.8430 hc       589 PS      -0.005300
   9420 HD1       -29.9240   10.3280   -3.0130 ha       589 PS       0.124600
   9421 HE1       -29.3340   11.9080   -1.0930 ha       589 PS       0.105800
   9422 HZ        -29.5440   11.0780    1.2370 ha       589 PS       0.124800
   9423 HE2       -30.2140    8.8280    1.6470 ha       589 PS       0.105800
   9424 HD2       -30.6040    7.2580   -0.1930 ha       589 PS       0.124600
   9425 C2        -32.2840    7.4680   -3.1030 c3       590 PS       0.031000
   9426 C1        -32.9940    8.7780   -3.6030 c3       590 PS       0.000400
   9427 CG        -33.9140    8.3080   -4.6830 ca       590 PS       0.250900
   9428 CD1       -33.4840    8.4280   -6.0630 ca       590 PS      -0.270200
   9429 CE1       -34.4040    8.2980   -7.0330 ca       590 PS      -0.050500
   9430 CZ        -35.6540    7.8280   -6.8030 ca       590 PS      -0.188800
   9431 CE2       -36.1040    7.6480   -5.4530 ca       590 PS      -0.050500
   9432 CD2       -35.2440    7.9680   -4.3930 ca       590 PS      -0.270200
   9433 H21       -32.5240    6.5880   -3.7230 hc       590 PS      -0.016200
   9434 H22       -32.7240    7.1780   -2.1430 hc       590 PS      -0.016200
   9435 H1        -32.2040    9.3780   -4.0730 hc       590 PS      -0.005300
   9436 HD1       -32.4840    8.8180   -6.2630 ha       590 PS       0.124600
   9437 HE1       -34.1140    8.4880   -8.0630 ha       590 PS       0.105800
   9438 HZ        -36.3240    7.6580   -7.6330 ha       590 PS       0.124800
   9439 HE2       -37.1040    7.2780   -5.2430 ha       590 PS       0.105800
   9440 HD2       -35.5440    7.7480   -3.3730 ha       590 PS       0.124600
   9441 C2        -33.5640    9.7280   -2.5630 c3       591 PS       0.031000
   9442 C1        -34.2740   11.0780   -3.0830 c3       591 PS       0.000400
   9443 CG        -33.3340   11.7880   -4.0830 ca       591 PS       0.250900
   9444 CD1       -33.6640   11.8580   -5.4530 ca       591 PS      -0.270200
   9445 CE1       -32.7540   12.3980   -6.3830 ca       591 PS      -0.050500
   9446 CZ        -31.5140   12.9980   -5.9330 ca       591 PS      -0.188800
   9447 CE2       -31.2740   13.0480   -4.5230 ca       591 PS      -0.050500
   9448 CD2       -32.1240   12.3780   -3.6130 ca       591 PS      -0.270200
   9449 H21       -34.2740    9.1580   -1.9630 hc       591 PS      -0.016200
   9450 H22       -32.8740   10.0080   -1.7530 hc       591 PS      -0.016200
   9451 H1        -35.1940   10.8380   -3.6330 hc       591 PS      -0.005300
   9452 HD1       -34.5540   11.5080   -5.9630 ha       591 PS       0.124600
   9453 HE1       -32.8240   12.5380   -7.4630 ha       591 PS       0.105800
   9454 HZ        -30.8740   13.5680   -6.6030 ha       591 PS       0.124800
   9455 HE2       -30.3440   13.3580   -4.0530 ha       591 PS       0.105800
   9456 HD2       -31.9340   12.3680   -2.5430 ha       591 PS       0.124600
   9457 C2        -34.6040   11.9380   -1.9330 c3       592 PS       0.031000
   9458 C1        -35.5040   13.1980   -2.2630 c3       592 PS       0.000400
   9459 CG        -36.5640   13.4780   -1.2630 ca       592 PS       0.250900
   9460 CD1       -37.9040   13.5380   -1.7630 ca       592 PS      -0.270200
   9461 CE1       -38.8740   14.0480   -0.8530 ca       592 PS      -0.050500
   9462 CZ        -38.6240   14.2380    0.4870 ca       592 PS      -0.188800
   9463 CE2       -37.3340   14.0680    0.8970 ca       592 PS      -0.050500
   9464 CD2       -36.2940   13.6980    0.1070 ca       592 PS      -0.270200
   9465 H21       -35.2340   11.3580   -1.2430 hc       592 PS      -0.016200
   9466 H22       -33.6540   12.2380   -1.4730 hc       592 PS      -0.016200
   9467 H1        -36.0040   12.9480   -3.2030 hc       592 PS      -0.005300
   9468 HD1       -38.1640   13.3580   -2.8030 ha       592 PS       0.124600
   9469 HE1       -39.8740   14.2780   -1.2030 ha       592 PS       0.105800
   9470 HZ        -39.3740   14.6280    1.1670 ha       592 PS       0.124800
   9471 HE2       -37.0540   14.2180    1.9370 ha       592 PS       0.105800
   9472 HD2       -35.2940   13.5180    0.4970 ha       592 PS       0.124600
   9473 C2        -34.6540   14.4980   -2.4130 c3       593 PS       0.031000
   9474 C1        -35.4740   15.8280   -2.7530 c3       593 PS       0.000400
   9475 CG        -36.3140   15.6980   -4.0330 ca       593 PS       0.250900
   9476 CD1       -37.6640   15.9980   -3.9930 ca       593 PS      -0.270200
   9477 CE1       -38.4140   15.9780   -5.1830 ca       593 PS      -0.050500
   9478 CZ        -37.7740   15.7780   -6.4130 ca       593 PS      -0.188800
   9479 CE2       -36.4340   15.4880   -6.4830 ca       593 PS      -0.050500
   9480 CD2       -35.6840   15.4180   -5.2830 ca       593 PS      -0.270200
   9481 H21       -34.2140   14.6180   -1.4130 hc       593 PS      -0.016200
   9482 H22       -33.7840   14.3380   -3.0630 hc       593 PS      -0.016200
   9483 H1        -36.0940   16.0080   -1.8730 hc       593 PS      -0.005300
   9484 HD1       -38.1840   16.1980   -3.0730 ha       593 PS       0.124600
   9485 HE1       -39.4640   16.2280   -5.2430 ha       593 PS       0.105800
   9486 HZ        -38.3340   15.7780   -7.3430 ha       593 PS       0.124800
   9487 HE2       -35.9240   15.2780   -7.4230 ha       593 PS       0.105800
   9488 HD2       -34.6240   15.1480   -5.2830 ha       593 PS       0.124600
   9489 C2        -34.4040   16.9580   -2.7930 c3       594 PS       0.031000
   9490 C1        -34.1640   17.6580   -1.3730 c3       594 PS       0.000400
   9491 CG        -35.4940   18.3380   -1.0930 ca       594 PS       0.250900
   9492 CD1       -36.3540   17.7280   -0.2130 ca       594 PS      -0.270200
   9493 CE1       -37.6140   18.2980   -0.0230 ca       594 PS      -0.050500
   9494 CZ        -38.0240   19.4380   -0.6930 ca       594 PS      -0.188800
   9495 CE2       -37.2240   19.9780   -1.6230 ca       594 PS      -0.050500
   9496 CD2       -35.9340   19.4580   -1.8330 ca       594 PS      -0.270200
   9497 H21       -33.3740   16.6280   -2.9830 hc       594 PS      -0.016200
   9498 H22       -34.7040   17.7280   -3.5130 hc       594 PS      -0.016200
   9499 H1        -33.8740   16.8880   -0.6530 hc       594 PS      -0.005300
   9500 HD1       -36.0040   16.8880    0.3870 ha       594 PS       0.124600
   9501 HE1       -38.2840   17.8480    0.7070 ha       594 PS       0.105800
   9502 HZ        -38.9940   19.9180   -0.5630 ha       594 PS       0.124800
   9503 HE2       -37.5440   20.8380   -2.2130 ha       594 PS       0.105800
   9504 HD2       -35.2840   19.9280   -2.5730 ha       594 PS       0.124600
   9505 C2        -33.0140   18.7280   -1.4330 c3       595 PS       0.031000
   9506 C1        -33.0040   19.6980   -0.2030 c3       595 PS       0.000400
   9507 CG        -31.9140   20.6980   -0.5030 ca       595 PS       0.250900
   9508 CD1       -32.1840   22.0480   -0.4230 ca       595 PS      -0.270200
   9509 CE1       -31.1340   22.9480   -0.3930 ca       595 PS      -0.050500
   9510 CZ        -29.8440   22.5280   -0.5830 ca       595 PS      -0.188800
   9511 CE2       -29.5540   21.1380   -0.6930 ca       595 PS      -0.050500
   9512 CD2       -30.5740   20.2280   -0.5330 ca       595 PS      -0.270200
   9513 H21       -32.0140   18.2680   -1.4630 hc       595 PS      -0.016200
   9514 H22       -33.1240   19.3580   -2.3230 hc       595 PS      -0.016200
   9515 H1        -33.9640   20.2280   -0.2130 hc       595 PS      -0.005300
   9516 HD1       -33.2340   22.3380   -0.3730 ha       595 PS       0.124600
   9517 HE1       -31.4040   23.9880   -0.3030 ha       595 PS       0.105800
   9518 HZ        -29.0640   23.2780   -0.5130 ha       595 PS       0.124800
   9519 HE2       -28.5340   20.7980   -0.8730 ha       595 PS       0.105800
   9520 HD2       -30.3340   19.1680   -0.6130 ha       595 PS       0.124600
   9521 C2        -32.7040   19.0180    1.1470 c3       596 PS       0.031000
   9522 C1        -32.7740   19.9980    2.3970 c3       596 PS       0.000400
   9523 CG        -32.3040   19.2680    3.6570 ca       596 PS       0.250900
   9524 CD1       -31.0840   19.7580    4.2870 ca       596 PS      -0.270200
   9525 CE1       -30.3940   19.0480    5.2770 ca       596 PS      -0.050500
   9526 CZ        -31.0040   17.8280    5.7070 ca       596 PS      -0.188800
   9527 CE2       -32.1640   17.3280    5.0870 ca       596 PS      -0.050500
   9528 CD2       -32.7940   17.9880    4.0570 ca       596 PS      -0.270200
   9529 H21       -33.3640   18.1480    1.2770 hc       596 PS      -0.016200
   9530 H22       -31.7140   18.5580    1.0770 hc       596 PS      -0.016200
   9531 H1        -32.1840   20.8980    2.2170 hc       596 PS      -0.005300
   9532 HD1       -30.7640   20.7480    3.9770 ha       596 PS       0.124600
   9533 HE1       -29.4540   19.4280    5.6770 ha       596 PS       0.105800
   9534 HZ        -30.5940   17.2080    6.4970 ha       596 PS       0.124800
   9535 HE2       -32.6240   16.4380    5.5070 ha       596 PS       0.105800
   9536 HD2       -33.6840   17.5080    3.6670 ha       596 PS       0.124600
   9537 C2        -34.3040   20.3680    2.5970 c3       597 PS       0.031000
   9538 C1        -34.4140   21.5080    3.7170 c3       597 PS       0.000400
   9539 CG        -34.2340   22.8480    3.0270 ca       597 PS       0.250900
   9540 CD1       -32.9740   23.4480    2.9370 ca       597 PS      -0.270200
   9541 CE1       -32.8140   24.7580    2.3770 ca       597 PS      -0.050500
   9542 CZ        -33.9240   25.3980    1.7970 ca       597 PS      -0.188800
   9543 CE2       -35.2040   24.8080    1.9270 ca       597 PS      -0.050500
   9544 CD2       -35.2940   23.5180    2.4970 ca       597 PS      -0.270200
   9545 H21       -34.7840   20.6980    1.6670 hc       597 PS      -0.016200
   9546 H22       -34.8840   19.4780    2.8570 hc       597 PS      -0.016200
   9547 H1        -33.5940   21.3680    4.4270 hc       597 PS      -0.005300
   9548 HD1       -32.0840   22.9380    3.2870 ha       597 PS       0.124600
   9549 HE1       -31.8140   25.1680    2.3670 ha       597 PS       0.105800
   9550 HZ        -33.7340   26.3280    1.2770 ha       597 PS       0.124800
   9551 HE2       -36.1340   25.2780    1.5970 ha       597 PS       0.105800
   9552 HD2       -36.3140   23.1280    2.5870 ha       597 PS       0.124600
   9553 C2        -35.6640   21.3780    4.6070 c3       598 PS       0.031000
   9554 C1        -35.4840   20.5080    5.8770 c3       598 PS       0.000400
   9555 CG        -34.4840   21.1780    6.7670 ca       598 PS       0.250900
   9556 CD1       -33.2640   20.5780    7.0670 ca       598 PS      -0.270200
   9557 CE1       -32.3240   21.3180    7.8770 ca       598 PS      -0.050500
   9558 CZ        -32.6340   22.5380    8.4370 ca       598 PS      -0.188800
   9559 CE2       -33.7940   23.1980    8.1370 ca       598 PS      -0.050500
   9560 CD2       -34.7240   22.5280    7.3070 ca       598 PS      -0.270200
   9561 H21       -35.9240   22.3580    5.0270 hc       598 PS      -0.016200
   9562 H22       -36.4640   21.0680    3.9170 hc       598 PS      -0.016200
   9563 H1        -35.1740   19.4780    5.6470 hc       598 PS      -0.005300
   9564 HD1       -33.0740   19.5280    6.8470 ha       598 PS       0.124600
   9565 HE1       -31.5140   20.6880    8.2370 ha       598 PS       0.105800
   9566 HZ        -31.8940   22.9880    9.0970 ha       598 PS       0.124800
   9567 HE2       -34.1040   24.1880    8.4670 ha       598 PS       0.105800
   9568 HD2       -35.6340   23.0380    7.0070 ha       598 PS       0.124600
   9569 C2        -36.7640   20.3280    6.6470 c3       599 PS       0.031000
   9570 C1        -37.7340   19.2380    5.9870 c3       599 PS       0.000400
   9571 CG        -37.0440   17.8780    5.5370 ca       599 PS       0.250900
   9572 CD1       -36.8640   17.5580    4.1370 ca       599 PS      -0.270200
   9573 CE1       -36.2540   16.3680    3.7870 ca       599 PS      -0.050500
   9574 CZ        -35.7040   15.5180    4.7970 ca       599 PS      -0.188800
   9575 CE2       -35.7740   15.9380    6.1170 ca       599 PS      -0.050500
   9576 CD2       -36.4940   17.0680    6.4770 ca       599 PS      -0.270200
   9577 H21       -36.5740   20.0880    7.7070 hc       599 PS      -0.016200
   9578 H22       -37.3440   21.2480    6.7970 hc       599 PS      -0.016200
   9579 H1        -38.0240   19.7580    5.0570 hc       599 PS      -0.005300
   9580 HD1       -37.1940   18.2080    3.3370 ha       599 PS       0.124600
   9581 HE1       -36.0840   16.1180    2.7370 ha       599 PS       0.105800
   9582 HZ        -35.2640   14.5680    4.5070 ha       599 PS       0.124800
   9583 HE2       -35.1640   15.3880    6.8270 ha       599 PS       0.105800
   9584 HD2       -36.4640   17.3380    7.5270 ha       599 PS       0.124600
   9585 C2         40.8960   19.0880    6.7670 c3       600 PS       0.031000
   9586 C1         39.7260   18.7380    5.9070 c3       600 PS       0.000400
   9587 CG         39.4360   17.2380    6.0070 ca       600 PS       0.250900
   9588 CD1        38.6160   16.7380    7.0270 ca       600 PS      -0.270200
   9589 CE1        38.2460   15.3980    7.0770 ca       600 PS      -0.050500
   9590 CZ         38.4960   14.5480    5.9570 ca       600 PS      -0.188800
   9591 CE2        39.3060   15.0980    4.9870 ca       600 PS      -0.050500
   9592 CD2        39.7560   16.3780    4.9370 ca       600 PS      -0.270200
   9593 H21        41.0160   18.4180    7.6270 hc       600 PS      -0.016200
   9594 H22        40.8160   20.0880    7.2070 hc       600 PS      -0.016200
   9595 H1         38.8360   19.2880    6.2370 hc       600 PS      -0.005300
   9596 HD1        38.2860   17.3980    7.8170 ha       600 PS       0.124600
   9597 HE1        37.7760   14.9980    7.9670 ha       600 PS       0.105800
   9598 HZ         38.1260   13.5280    5.8570 ha       600 PS       0.124800
   9599 HE2        39.6960   14.4580    4.1970 ha       600 PS       0.105800
   9600 HD2        40.4060   16.6180    4.1070 ha       600 PS       0.124600
   9601 C2         29.3160  -38.4120    7.1270 c3       601 PS       0.031000
   9602 C1         30.0360  -39.7420    6.6270 c3       601 PS       0.000400
   9603 CG         31.5060  -39.6020    6.3870 ca       601 PS       0.250900
   9604 CD1        32.0560  -39.7020    5.0870 ca       601 PS      -0.270200
   9605 CE1        33.3760  -39.3220    4.7970 ca       601 PS      -0.050500
   9606 CZ         34.1760  -38.9320    5.8970 ca       601 PS      -0.188800
   9607 CE2        33.6960  -38.8920    7.2070 ca       601 PS      -0.050500
   9608 CD2        32.3760  -39.2420    7.4870 ca       601 PS      -0.270200
   9609 H21        29.1160  -37.6720    6.3370 hc       601 PS      -0.016200
   9610 H22        28.2860  -38.4920    7.5070 hc       601 PS      -0.016200
   9611 H1         29.5560  -39.8620    5.6470 hc       601 PS      -0.005300
   9612 HD1        31.3660  -40.1720    4.3970 ha       601 PS       0.124600
   9613 HE1        33.8360  -39.4420    3.8170 ha       601 PS       0.105800
   9614 HZ         35.1860  -38.6420    5.6270 ha       601 PS       0.124800
   9615 HE2        34.3860  -38.5520    7.9770 ha       601 PS       0.105800
   9616 HD2        31.9560  -39.1520    8.4870 ha       601 PS       0.124600
   9617 C2         29.6960   38.9380    7.3770 c3       602 PS       0.031000
   9618 C1         29.5260   37.6480    6.4770 c3       602 PS       0.000400
   9619 CG         30.8360   37.3580    5.7170 ca       602 PS       0.250900
   9620 CD1        30.9860   37.4480    4.3070 ca       602 PS      -0.270200
   9621 CE1        32.1360   37.0380    3.5970 ca       602 PS      -0.050500
   9622 CZ         33.2360   36.6280    4.3270 ca       602 PS      -0.188800
   9623 CE2        33.2360   36.5780    5.7270 ca       602 PS      -0.050500
   9624 CD2        32.0660   37.0280    6.4170 ca       602 PS      -0.270200
   9625 H21        30.3460   38.6980    8.2270 hc       602 PS      -0.016200
   9626 H22        28.7660   39.2280    7.8770 hc       602 PS      -0.016200
   9627 H1         28.6660   37.7580    5.7970 hc       602 PS      -0.005300
   9628 HD1        30.0960   37.7180    3.7270 ha       602 PS       0.124600
   9629 HE1        32.2660   36.9680    2.5170 ha       602 PS       0.105800
   9630 HZ         34.1260   36.1980    3.8770 ha       602 PS       0.124800
   9631 HE2        34.0560   36.2480    6.3470 ha       602 PS       0.105800
   9632 HD2        31.9860   37.1180    7.4970 ha       602 PS       0.124600
   9633 C2         29.2360   36.4880    7.4370 c3       603 PS       0.031000
   9634 C1         28.9560   35.1280    6.6770 c3       603 PS       0.000400
   9635 CG         30.2860   34.3780    6.3770 ca       603 PS       0.250900
   9636 CD1        30.6760   34.2080    5.0670 ca       603 PS      -0.270200
   9637 CE1        31.9560   33.7580    4.7370 ca       603 PS      -0.050500
   9638 CZ         32.7960   33.3680    5.7970 ca       603 PS      -0.188800
   9639 CE2        32.3760   33.4480    7.1070 ca       603 PS      -0.050500
   9640 CD2        31.1360   33.9180    7.3970 ca       603 PS      -0.270200
   9641 H21        30.0760   36.2880    8.1170 hc       603 PS      -0.016200
   9642 H22        28.3560   36.7880    8.0370 hc       603 PS      -0.016200
   9643 H1         28.4760   35.4180    5.7370 hc       603 PS      -0.005300
   9644 HD1        30.0460   34.5380    4.2470 ha       603 PS       0.124600
   9645 HE1        32.1860   33.6380    3.6770 ha       603 PS       0.105800
   9646 HZ         33.7460   32.9480    5.4670 ha       603 PS       0.124800
   9647 HE2        33.0660   33.2080    7.9170 ha       603 PS       0.105800
   9648 HD2        30.7960   34.0480    8.4170 ha       603 PS       0.124600
   9649 C2         27.8360   34.3580    7.3870 c3       604 PS       0.031000
   9650 C1         27.4160   33.1180    6.6170 c3       604 PS       0.000400
   9651 CG         25.9060   32.7980    6.7870 ca       604 PS       0.250900
   9652 CD1        24.9560   33.1180    5.8170 ca       604 PS      -0.270200
   9653 CE1        23.5660   33.0380    5.9770 ca       604 PS      -0.050500
   9654 CZ         23.1560   32.4680    7.1470 ca       604 PS      -0.188800
   9655 CE2        24.0360   31.9480    8.0470 ca       604 PS      -0.050500
   9656 CD2        25.4160   32.0980    7.9170 ca       604 PS      -0.270200
   9657 H21        28.1660   34.1080    8.4070 hc       604 PS      -0.016200
   9658 H22        26.9360   34.9780    7.3370 hc       604 PS      -0.016200
   9659 H1         27.4360   33.2180    5.5270 hc       604 PS      -0.005300
   9660 HD1        25.3660   33.7080    4.9970 ha       604 PS       0.124600
   9661 HE1        22.8960   33.6280    5.3570 ha       604 PS       0.105800
   9662 HZ         22.0860   32.3580    7.3370 ha       604 PS       0.124800
   9663 HE2        23.6460   31.4380    8.9270 ha       604 PS       0.105800
   9664 HD2        26.0460   31.7480    8.7270 ha       604 PS       0.124600
   9665 C2         28.3060   31.8580    6.9070 c3       605 PS       0.031000
   9666 C1         27.9360   30.5480    6.1070 c3       605 PS       0.000400
   9667 CG         28.2060   30.8380    4.6670 ca       605 PS       0.250900
   9668 CD1        29.4760   30.9080    4.0970 ca       605 PS      -0.270200
   9669 CE1        29.6360   31.1780    2.7170 ca       605 PS      -0.050500
   9670 CZ         28.5060   31.3680    1.8970 ca       605 PS      -0.188800
   9671 CE2        27.2160   31.3780    2.4970 ca       605 PS      -0.050500
   9672 CD2        27.0360   31.0580    3.8670 ca       605 PS      -0.270200
   9673 H21        29.3760   32.0280    6.7670 hc       605 PS      -0.016200
   9674 H22        28.2660   31.6180    7.9770 hc       605 PS      -0.016200
   9675 H1         26.8560   30.4880    6.2970 hc       605 PS      -0.005300
   9676 HD1        30.2860   30.8080    4.8170 ha       605 PS       0.124600
   9677 HE1        30.5860   31.3780    2.2170 ha       605 PS       0.105800
   9678 HZ         28.7360   31.5580    0.8570 ha       605 PS       0.124800
   9679 HE2        26.3860   31.4880    1.8070 ha       605 PS       0.105800
   9680 HD2        26.0360   31.0580    4.2870 ha       605 PS       0.124600
   9681 C2         28.6960   29.2580    6.6870 c3       606 PS       0.031000
   9682 C1         28.2360   27.8880    6.0970 c3       606 PS       0.000400
   9683 CG         29.3260   26.9180    6.2570 ca       606 PS       0.250900
   9684 CD1        29.6660   26.3180    7.5170 ca       606 PS      -0.270200
   9685 CE1        30.6360   25.3580    7.6770 ca       606 PS      -0.050500
   9686 CZ         31.4460   25.0280    6.6070 ca       606 PS      -0.188800
   9687 CE2        31.2260   25.6980    5.3970 ca       606 PS      -0.050500
   9688 CD2        30.1560   26.6080    5.2070 ca       606 PS      -0.270200
   9689 H21        29.7760   29.3980    6.5470 hc       606 PS      -0.016200
   9690 H22        28.5160   29.2080    7.7670 hc       606 PS      -0.016200
   9691 H1         28.1460   28.0180    5.0170 hc       606 PS      -0.005300
   9692 HD1        29.0560   26.5580    8.3770 ha       606 PS       0.124600
   9693 HE1        30.7660   24.9080    8.6570 ha       606 PS       0.105800
   9694 HZ         32.1660   24.2180    6.5470 ha       606 PS       0.124800
   9695 HE2        31.7860   25.3880    4.5170 ha       606 PS       0.105800
   9696 HD2        30.1660   27.0380    4.2170 ha       606 PS       0.124600
   9697 C2         26.8560   27.5380    6.6970 c3       607 PS       0.031000
   9698 C1         26.2360   26.1580    6.2670 c3       607 PS       0.000400
   9699 CG         24.9860   25.8880    7.1470 ca       607 PS       0.250900
   9700 CD1        24.0360   26.9280    7.3370 ca       607 PS      -0.270200
   9701 CE1        22.8160   26.6380    7.9670 ca       607 PS      -0.050500
   9702 CZ         22.5560   25.3280    8.3870 ca       607 PS      -0.188800
   9703 CE2        23.5560   24.3480    8.3170 ca       607 PS      -0.050500
   9704 CD2        24.7660   24.6280    7.7070 ca       607 PS      -0.270200
   9705 H21        26.9560   27.4480    7.7870 hc       607 PS      -0.016200
   9706 H22        26.1660   28.3680    6.5070 hc       607 PS      -0.016200
   9707 H1         26.8560   25.3180    6.6070 hc       607 PS      -0.005300
   9708 HD1        23.9860   27.8580    6.7770 ha       607 PS       0.124600
   9709 HE1        22.0160   27.3580    7.8270 ha       607 PS       0.105800
   9710 HZ         21.5760   24.9580    8.6870 ha       607 PS       0.124800
   9711 HE2        23.2760   23.3880    8.7470 ha       607 PS       0.105800
   9712 HD2        25.4860   23.8180    7.5670 ha       607 PS       0.124600
   9713 C2         25.8960   25.9380    4.7570 c3       608 PS       0.031000
   9714 C1         25.4660   24.4880    4.3870 c3       608 PS       0.000400
   9715 CG         26.3060   24.0080    3.1870 ca       608 PS       0.250900
   9716 CD1        26.3960   24.6580    1.9470 ca       608 PS      -0.270200
   9717 CE1        27.1860   24.0980    0.9270 ca       608 PS      -0.050500
   9718 CZ         27.9760   22.9780    1.1670 ca       608 PS      -0.188800
   9719 CE2        27.9760   22.4380    2.4170 ca       608 PS      -0.050500
   9720 CD2        27.1160   22.8680    3.4270 ca       608 PS      -0.270200
   9721 H21        25.1760   26.6780    4.3870 hc       608 PS      -0.016200
   9722 H22        26.8760   26.1680    4.3270 hc       608 PS      -0.016200
   9723 H1         25.6160   23.7780    5.2170 hc       608 PS      -0.005300
   9724 HD1        25.8160   25.5680    1.7870 ha       608 PS       0.124600
   9725 HE1        27.2960   24.5580   -0.0530 ha       608 PS       0.105800
   9726 HZ         28.5660   22.5880    0.3370 ha       608 PS       0.124800
   9727 HE2        28.5760   21.5480    2.5670 ha       608 PS       0.105800
   9728 HD2        27.0960   22.3880    4.4070 ha       608 PS       0.124600
   9729 C2         23.9260   24.4380    3.9770 c3       609 PS       0.031000
   9730 C1         23.3660   22.9080    3.9570 c3       609 PS       0.000400
   9731 CG         22.9560   22.3680    5.3470 ca       609 PS       0.250900
   9732 CD1        23.3660   21.1080    5.8070 ca       609 PS      -0.270200
   9733 CE1        22.8260   20.6080    7.0670 ca       609 PS      -0.050500
   9734 CZ         21.8560   21.3980    7.7370 ca       609 PS      -0.188800
   9735 CE2        21.3960   22.5780    7.1870 ca       609 PS      -0.050500
   9736 CD2        21.9860   23.0380    6.0370 ca       609 PS      -0.270200
   9737 H21        23.2860   24.9980    4.6670 hc       609 PS      -0.016200
   9738 H22        23.8660   24.7980    2.9470 hc       609 PS      -0.016200
   9739 H1         24.1460   22.2280    3.6170 hc       609 PS      -0.005300
   9740 HD1        24.1360   20.5080    5.3170 ha       609 PS       0.124600
   9741 HE1        22.9660   19.5580    7.2870 ha       609 PS       0.105800
   9742 HZ         21.3960   20.9980    8.6370 ha       609 PS       0.124800
   9743 HE2        20.5560   23.1180    7.6170 ha       609 PS       0.105800
   9744 HD2        21.6660   23.9880    5.6070 ha       609 PS       0.124600
   9745 C2         22.1760   22.6480    2.9370 c3       610 PS       0.031000
   9746 C1         22.5960   22.0480    1.5270 c3       610 PS       0.000400
   9747 CG         21.2960   21.5880    0.8570 ca       610 PS       0.250900
   9748 CD1        21.2360   20.1880    0.8170 ca       610 PS      -0.270200
   9749 CE1        20.1760   19.5680    0.1670 ca       610 PS      -0.050500
   9750 CZ         19.1260   20.3580   -0.3130 ca       610 PS      -0.188800
   9751 CE2        19.1060   21.7780   -0.1730 ca       610 PS      -0.050500
   9752 CD2        20.2060   22.3580    0.4370 ca       610 PS      -0.270200
   9753 H21        21.5260   21.8680    3.3470 hc       610 PS      -0.016200
   9754 H22        21.6960   23.6280    2.8370 hc       610 PS      -0.016200
   9755 H1         23.2660   21.1880    1.6070 hc       610 PS      -0.005300
   9756 HD1        22.1660   19.6580    0.9970 ha       610 PS       0.124600
   9757 HE1        20.2260   18.4780    0.1470 ha       610 PS       0.105800
   9758 HZ         18.2660   19.7880   -0.6630 ha       610 PS       0.124800
   9759 HE2        18.2160   22.3680   -0.3530 ha       610 PS       0.105800
   9760 HD2        20.1760   23.4280    0.6270 ha       610 PS       0.124600
   9761 C2         23.1960   23.2080    0.7470 c3       611 PS       0.031000
   9762 C1         23.0960   23.0980   -0.8330 c3       611 PS       0.000400
   9763 CG         23.4160   21.7080   -1.3230 ca       611 PS       0.250900
   9764 CD1        22.4660   21.0280   -2.0930 ca       611 PS      -0.270200
   9765 CE1        22.7060   19.7380   -2.5230 ca       611 PS      -0.050500
   9766 CZ         23.9860   19.1380   -2.2930 ca       611 PS      -0.188800
   9767 CE2        24.9260   19.8080   -1.5130 ca       611 PS      -0.050500
   9768 CD2        24.6760   21.1280   -1.1330 ca       611 PS      -0.270200
   9769 H21        22.6660   24.1280    1.0370 hc       611 PS      -0.016200
   9770 H22        24.2360   23.3980    1.0470 hc       611 PS      -0.016200
   9771 H1         22.0560   23.3080   -1.1030 hc       611 PS      -0.005300
   9772 HD1        21.5060   21.4280   -2.3930 ha       611 PS       0.124600
   9773 HE1        21.9660   19.2380   -3.1530 ha       611 PS       0.105800
   9774 HZ         24.3060   18.1580   -2.6530 ha       611 PS       0.124800
   9775 HE2        25.8360   19.3880   -1.0930 ha       611 PS       0.105800
   9776 HD2        25.4660   21.6180   -0.5730 ha       611 PS       0.124600
   9777 C2         23.9660   24.1680   -1.6030 c3       612 PS       0.031000
   9778 C1         23.8660   25.7080   -1.1530 c3       612 PS       0.000400
   9779 CG         22.4060   26.0580   -0.6530 ca       612 PS       0.250900
   9780 CD1        21.2960   25.9080   -1.5230 ca       612 PS      -0.270200
   9781 CE1        19.9460   26.1280   -0.9730 ca       612 PS      -0.050500
   9782 CZ         19.7160   26.4880    0.3570 ca       612 PS      -0.188800
   9783 CE2        20.8260   26.6380    1.1770 ca       612 PS      -0.050500
   9784 CD2        22.1260   26.5180    0.6770 ca       612 PS      -0.270200
   9785 H21        25.0060   23.8980   -1.4030 hc       612 PS      -0.016200
   9786 H22        23.6260   24.1680   -2.6430 hc       612 PS      -0.016200
   9787 H1         24.5460   25.7680   -0.2930 hc       612 PS      -0.005300
   9788 HD1        21.4860   25.6280   -2.5530 ha       612 PS       0.124600
   9789 HE1        19.0760   25.9980   -1.6030 ha       612 PS       0.105800
   9790 HZ         18.7460   26.5480    0.8470 ha       612 PS       0.124800
   9791 HE2        20.7860   26.8880    2.2370 ha       612 PS       0.105800
   9792 HD2        22.9760   26.5480    1.3670 ha       612 PS       0.124600
   9793 C2         24.5260   26.7280   -2.2430 c3       613 PS       0.031000
   9794 C1         24.7060   28.2280   -1.8130 c3       613 PS       0.000400
   9795 CG         25.4560   28.1680   -0.4930 ca       613 PS       0.250900
   9796 CD1        24.7360   28.4880    0.6670 ca       613 PS      -0.270200
   9797 CE1        25.3760   28.4980    1.8770 ca       613 PS      -0.050500
   9798 CZ         26.6960   28.2480    1.9870 ca       613 PS      -0.188800
   9799 CE2        27.4260   27.8880    0.8570 ca       613 PS      -0.050500
   9800 CD2        26.8160   27.8780   -0.3830 ca       613 PS      -0.270200
   9801 H21        25.5560   26.4380   -2.5330 hc       613 PS      -0.016200
   9802 H22        23.8560   26.7180   -3.1130 hc       613 PS      -0.016200
   9803 H1         23.7260   28.6880   -1.6430 hc       613 PS      -0.005300
   9804 HD1        23.6760   28.7380    0.5770 ha       613 PS       0.124600
   9805 HE1        24.7260   28.6980    2.7270 ha       613 PS       0.105800
   9806 HZ         27.0960   28.3280    2.9970 ha       613 PS       0.124800
   9807 HE2        28.4660   27.5780    1.0070 ha       613 PS       0.105800
   9808 HD2        27.3760   27.6980   -1.2930 ha       613 PS       0.124600
   9809 C2         25.4360   29.0480   -2.9230 c3       614 PS       0.031000
   9810 C1         25.8960   30.5180   -2.6330 c3       614 PS       0.000400
   9811 CG         24.6760   31.2580   -1.9330 ca       614 PS       0.250900
   9812 CD1        23.4560   31.4380   -2.6630 ca       614 PS      -0.270200
   9813 CE1        22.3560   32.0780   -1.9930 ca       614 PS      -0.050500
   9814 CZ         22.5560   32.4580   -0.6130 ca       614 PS      -0.188800
   9815 CE2        23.7360   32.1180    0.1170 ca       614 PS      -0.050500
   9816 CD2        24.7360   31.4880   -0.5830 ca       614 PS      -0.270200
   9817 H21        26.2560   28.4380   -3.3230 hc       614 PS      -0.016200
   9818 H22        24.7160   28.9880   -3.7530 hc       614 PS      -0.016200
   9819 H1         26.7060   30.4480   -1.9030 hc       614 PS      -0.005300
   9820 HD1        23.2560   31.2280   -3.7130 ha       614 PS       0.124600
   9821 HE1        21.4460   32.3580   -2.5130 ha       614 PS       0.105800
   9822 HZ         21.9360   33.1480   -0.0530 ha       614 PS       0.124800
   9823 HE2        23.8060   32.2780    1.1870 ha       614 PS       0.105800
   9824 HD2        25.6760   31.2680   -0.0830 ha       614 PS       0.124600
   9825 C2         26.5160   31.2080   -3.8230 c3       615 PS       0.031000
   9826 C1         27.2060   32.5680   -3.7330 c3       615 PS       0.000400
   9827 CG         28.1260   32.8580   -4.9530 ca       615 PS       0.250900
   9828 CD1        27.6760   33.6980   -6.0130 ca       615 PS      -0.270200
   9829 CE1        28.4960   33.8580   -7.1630 ca       615 PS      -0.050500
   9830 CZ         29.7060   33.1580   -7.3330 ca       615 PS      -0.188800
   9831 CE2        30.0960   32.2380   -6.2930 ca       615 PS      -0.050500
   9832 CD2        29.3160   32.1280   -5.1130 ca       615 PS      -0.270200
   9833 H21        27.1760   30.3980   -4.1530 hc       615 PS      -0.016200
   9834 H22        25.7260   31.2780   -4.5830 hc       615 PS      -0.016200
   9835 H1         26.4260   33.3480   -3.7530 hc       615 PS      -0.005300
   9836 HD1        26.7260   34.1880   -5.8130 ha       615 PS       0.124600
   9837 HE1        28.3260   34.5380   -7.9930 ha       615 PS       0.105800
   9838 HZ         30.4060   33.3880   -8.1230 ha       615 PS       0.124800
   9839 HE2        31.0060   31.6580   -6.4130 ha       615 PS       0.105800
   9840 HD2        29.7160   31.5380   -4.2930 ha       615 PS       0.124600
   9841 C2         27.9760   32.8880   -2.3930 c3       616 PS       0.031000
   9842 C1         28.7960   34.2680   -2.3730 c3       616 PS       0.000400
   9843 CG         29.7060   34.1580   -1.2030 ca       616 PS       0.250900
   9844 CD1        29.4360   34.6580    0.0670 ca       616 PS      -0.270200
   9845 CE1        30.3360   34.5280    1.0670 ca       616 PS      -0.050500
   9846 CZ         31.5460   33.9580    0.9270 ca       616 PS      -0.188800
   9847 CE2        31.9060   33.4780   -0.3730 ca       616 PS      -0.050500
   9848 CD2        30.9760   33.6280   -1.4230 ca       616 PS      -0.270200
   9849 H21        27.2960   32.8580   -1.5330 hc       616 PS      -0.016200
   9850 H22        28.6360   32.0180   -2.2930 hc       616 PS      -0.016200
   9851 H1         29.3860   34.3680   -3.2930 hc       616 PS      -0.005300
   9852 HD1        28.4160   34.9980    0.2370 ha       616 PS       0.124600
   9853 HE1        30.1060   35.0380    1.9970 ha       616 PS       0.105800
   9854 HZ         32.2360   34.0080    1.7570 ha       616 PS       0.124800
   9855 HE2        32.9060   33.1080   -0.5530 ha       616 PS       0.105800
   9856 HD2        31.2760   33.3380   -2.4230 ha       616 PS       0.124600
   9857 C2         27.8460   35.4880   -2.3530 c3       617 PS       0.031000
   9858 C1         28.5760   36.8380   -2.4230 c3       617 PS       0.000400
   9859 CG         29.3060   36.9180   -3.7630 ca       617 PS       0.250900
   9860 CD1        30.6260   36.6680   -3.8230 ca       617 PS      -0.270200
   9861 CE1        31.3060   36.3480   -4.9730 ca       617 PS      -0.050500
   9862 CZ         30.6860   36.6380   -6.2130 ca       617 PS      -0.188800
   9863 CE2        29.3860   37.0380   -6.2230 ca       617 PS      -0.050500
   9864 CD2        28.7060   37.1680   -5.0130 ca       617 PS      -0.270200
   9865 H21        27.0960   35.3180   -3.1330 hc       617 PS      -0.016200
   9866 H22        27.1860   35.4180   -1.4730 hc       617 PS      -0.016200
   9867 H1         29.2460   36.8380   -1.5530 hc       617 PS      -0.005300
   9868 HD1        31.0560   36.5180   -2.8330 ha       617 PS       0.124600
   9869 HE1        32.3460   36.0480   -5.0030 ha       617 PS       0.105800
   9870 HZ         31.2860   36.5280   -7.1130 ha       617 PS       0.124800
   9871 HE2        28.8460   37.2180   -7.1430 ha       617 PS       0.105800
   9872 HD2        27.6360   37.3880   -5.0630 ha       617 PS       0.124600
   9873 C2         27.6360   38.0480   -2.1730 c3       618 PS       0.031000
   9874 C1         27.8860   38.9380   -0.8230 c3       618 PS       0.000400
   9875 CG         27.2860   38.3080    0.5170 ca       618 PS       0.250900
   9876 CD1        28.1460   37.5280    1.3370 ca       618 PS      -0.270200
   9877 CE1        27.6860   36.8480    2.4770 ca       618 PS      -0.050500
   9878 CZ         26.3360   36.9780    2.9470 ca       618 PS      -0.188800
   9879 CE2        25.4260   37.7180    2.1270 ca       618 PS      -0.050500
   9880 CD2        25.9260   38.3380    0.9070 ca       618 PS      -0.270200
   9881 H21        27.7760   38.6380   -3.0830 hc       618 PS      -0.016200
   9882 H22        26.6160   37.6580   -2.2630 hc       618 PS      -0.016200
   9883 H1         28.9860   38.9180   -0.7130 hc       618 PS      -0.005300
   9884 HD1        29.1660   37.3480    1.0170 ha       618 PS       0.124600
   9885 HE1        28.4660   36.2680    2.9570 ha       618 PS       0.105800
   9886 HZ         25.9160   36.4180    3.7770 ha       618 PS       0.124800
   9887 HE2        24.4060   37.8980    2.4370 ha       618 PS       0.105800
   9888 HD2        25.2260   38.7280    0.1770 ha       618 PS       0.124600
   9889 C2         27.3860  -39.5420   -0.9330 c3       619 PS       0.031000
   9890 C1         27.6560  -38.7620    0.3970 c3       619 PS       0.000400
   9891 CG         27.4160  -37.2920    0.0870 ca       619 PS       0.250900
   9892 CD1        26.3060  -36.6020    0.6370 ca       619 PS      -0.270200
   9893 CE1        26.1960  -35.2220    0.5670 ca       619 PS      -0.050500
   9894 CZ         27.1660  -34.4620   -0.1630 ca       619 PS      -0.188800
   9895 CE2        28.1960  -35.1820   -0.8030 ca       619 PS      -0.050500
   9896 CD2        28.3460  -36.5220   -0.7330 ca       619 PS      -0.270200
   9897 H21        28.0360  -39.1020   -1.7030 hc       619 PS      -0.016200
   9898 H22        26.3160  -39.5020   -1.1630 hc       619 PS      -0.016200
   9899 H1         26.9060  -39.0520    1.1370 hc       619 PS      -0.005300
   9900 HD1        25.7360  -37.1420    1.3870 ha       619 PS       0.124600
   9901 HE1        25.4860  -34.6420    1.1470 ha       619 PS       0.105800
   9902 HZ         27.1260  -33.3820   -0.2830 ha       619 PS       0.124800
   9903 HE2        28.9460  -34.6120   -1.3330 ha       619 PS       0.105800
   9904 HD2        29.2160  -36.9720   -1.2030 ha       619 PS       0.124600
   9905 C2         29.0560  -38.8820    1.0570 c3       620 PS       0.031000
   9906 C1         29.1660  -37.9920    2.3270 c3       620 PS       0.000400
   9907 CG         28.0660  -38.2920    3.3770 ca       620 PS       0.250900
   9908 CD1        27.2160  -37.3220    3.8270 ca       620 PS      -0.270200
   9909 CE1        26.1860  -37.6320    4.7370 ca       620 PS      -0.050500
   9910 CZ         25.8960  -38.9820    5.0670 ca       620 PS      -0.188800
   9911 CE2        26.7860  -39.9720    4.5870 ca       620 PS      -0.050500
   9912 CD2        27.8660  -39.6120    3.7970 ca       620 PS      -0.270200
   9913 H21        29.2460  -39.9020    1.3970 hc       620 PS      -0.016200
   9914 H22        29.8960  -38.7720    0.3670 hc       620 PS      -0.016200
   9915 H1         29.1060  -36.9620    1.9470 hc       620 PS      -0.005300
   9916 HD1        27.1960  -36.3120    3.4370 ha       620 PS       0.124600
   9917 HE1        25.5260  -36.8420    5.0770 ha       620 PS       0.105800
   9918 HZ         24.9860  -39.2120    5.6170 ha       620 PS       0.124800
   9919 HE2        26.6060  -41.0320    4.7470 ha       620 PS       0.105800
   9920 HD2        28.4460  -40.4920    3.5270 ha       620 PS       0.124600
   9921 C2         30.6160  -37.9420    3.0070 c3       621 PS       0.031000
   9922 C1         31.2760  -36.5520    2.8170 c3       621 PS       0.000400
   9923 CG         30.4360  -35.3620    3.3170 ca       621 PS       0.250900
   9924 CD1        29.9060  -34.3920    2.4370 ca       621 PS      -0.270200
   9925 CE1        29.0860  -33.3520    2.9870 ca       621 PS      -0.050500
   9926 CZ         28.9560  -33.3020    4.4370 ca       621 PS      -0.188800
   9927 CE2        29.5060  -34.3020    5.2570 ca       621 PS      -0.050500
   9928 CD2        30.2560  -35.2520    4.7170 ca       621 PS      -0.270200
   9929 H21        30.5060  -38.1520    4.0870 hc       621 PS      -0.016200
   9930 H22        31.2660  -38.7320    2.6270 hc       621 PS      -0.016200
   9931 H1         32.1360  -36.5520    3.4970 hc       621 PS      -0.005300
   9932 HD1        29.9660  -34.5820    1.3770 ha       621 PS       0.124600
   9933 HE1        28.6060  -32.5520    2.4170 ha       621 PS       0.105800
   9934 HZ         28.3660  -32.5120    4.8770 ha       621 PS       0.124800
   9935 HE2        29.4160  -34.2620    6.3370 ha       621 PS       0.105800
   9936 HD2        30.6660  -35.9920    5.4070 ha       621 PS       0.124600
   9937 C2         32.0660  -36.4320    1.4570 c3       622 PS       0.031000
   9938 C1         33.2760  -37.3320    1.2470 c3       622 PS       0.000400
   9939 CG         32.9660  -38.2520    0.1070 ca       622 PS       0.250900
   9940 CD1        32.4960  -39.6220    0.3570 ca       622 PS      -0.270200
   9941 CE1        31.9960  -40.5620   -0.6830 ca       622 PS      -0.050500
   9942 CZ         31.9360  -40.0420   -1.9430 ca       622 PS      -0.188800
   9943 CE2        32.2460  -38.6920   -2.2130 ca       622 PS      -0.050500
   9944 CD2        32.8860  -37.8820   -1.2330 ca       622 PS      -0.270200
   9945 H21        31.3260  -36.4020    0.6470 hc       622 PS      -0.016200
   9946 H22        32.3960  -35.3920    1.3870 hc       622 PS      -0.016200
   9947 H1         33.5360  -37.9520    2.1070 hc       622 PS      -0.005300
   9948 HD1        32.5160  -39.8820    1.4070 ha       622 PS       0.124600
   9949 HE1        31.6960  -41.5720   -0.4230 ha       622 PS       0.105800
   9950 HZ         31.5960  -40.7220   -2.7130 ha       622 PS       0.124800
   9951 HE2        32.1560  -38.4220   -3.2530 ha       622 PS       0.105800
   9952 HD2        33.0360  -36.8520   -1.5430 ha       622 PS       0.124600
   9953 C2         34.5560  -36.5520    0.9470 c3       623 PS       0.031000
   9954 C1         35.2760  -35.9020    2.1970 c3       623 PS       0.000400
   9955 CG         34.6360  -34.5520    2.4570 ca       623 PS       0.250900
   9956 CD1        34.7060  -33.4420    1.6570 ca       623 PS      -0.270200
   9957 CE1        34.0260  -32.2920    1.9070 ca       623 PS      -0.050500
   9958 CZ         33.1860  -32.1720    3.0070 ca       623 PS      -0.188800
   9959 CE2        32.9960  -33.2620    3.7970 ca       623 PS      -0.050500
   9960 CD2        33.7360  -34.4320    3.5470 ca       623 PS      -0.270200
   9961 H21        35.2460  -37.2220    0.4170 hc       623 PS      -0.016200
   9962 H22        34.4160  -35.8620    0.1070 hc       623 PS      -0.016200
   9963 H1         35.1260  -36.5720    3.0470 hc       623 PS      -0.005300
   9964 HD1        35.3360  -33.5020    0.7670 ha       623 PS       0.124600
   9965 HE1        34.1660  -31.4820    1.1970 ha       623 PS       0.105800
   9966 HZ         32.6160  -31.2520    3.1070 ha       623 PS       0.124800
   9967 HE2        32.2960  -33.1920    4.6270 ha       623 PS       0.105800
   9968 HD2        33.6560  -35.2620    4.2470 ha       623 PS       0.124600
   9969 C2         36.8560  -35.8320    1.8870 c3       624 PS       0.031000
   9970 C1         37.6260  -35.1820    3.0470 c3       624 PS       0.000400
   9971 CG         37.5060  -33.6920    3.0570 ca       624 PS       0.250900
   9972 CD1        36.9460  -33.0220    4.1570 ca       624 PS      -0.270200
   9973 CE1        36.7460  -31.6520    4.2270 ca       624 PS      -0.050500
   9974 CZ         36.9960  -30.9320    3.0070 ca       624 PS      -0.188800
   9975 CE2        37.5560  -31.5720    1.8970 ca       624 PS      -0.050500
   9976 CD2        37.7360  -32.9120    1.9170 ca       624 PS      -0.270200
   9977 H21        37.3160  -36.7920    1.6270 hc       624 PS      -0.016200
   9978 H22        37.0060  -35.3420    0.9170 hc       624 PS      -0.016200
   9979 H1         37.0760  -35.6120    3.8870 hc       624 PS      -0.005300
   9980 HD1        36.8060  -33.5920    5.0670 ha       624 PS       0.124600
   9981 HE1        36.4160  -31.1020    5.1070 ha       624 PS       0.105800
   9982 HZ         36.8560  -29.8520    3.0070 ha       624 PS       0.124800
   9983 HE2        37.7660  -31.0720    0.9470 ha       624 PS       0.105800
   9984 HD2        38.2260  -33.3520    1.0570 ha       624 PS       0.124600
   9985 C2         39.1160  -35.4520    2.9770 c3       625 PS       0.031000
   9986 C1         39.3560  -36.8720    3.6470 c3       625 PS       0.000400
   9987 CG         38.9960  -36.8520    5.0870 ca       625 PS       0.250900
   9988 CD1        39.3960  -35.8720    6.0670 ca       625 PS      -0.270200
   9989 CE1        38.9760  -36.0220    7.3670 ca       625 PS      -0.050500
   9990 CZ         38.1860  -37.1520    7.7170 ca       625 PS      -0.188800
   9991 CE2        37.6360  -37.9420    6.7370 ca       625 PS      -0.050500
   9992 CD2        38.2260  -37.9920    5.5070 ca       625 PS      -0.270200
   9993 H21        39.4560  -35.4220    1.9370 hc       625 PS      -0.016200
   9994 H22        39.7360  -34.6820    3.4770 hc       625 PS      -0.016200
   9995 H1         38.7060  -37.5920    3.1370 hc       625 PS      -0.005300
   9996 HD1        40.0560  -35.0620    5.7570 ha       625 PS       0.124600
   9997 HE1        39.2560  -35.3120    8.1370 ha       625 PS       0.105800
   9998 HZ         37.8760  -37.1320    8.7570 ha       625 PS       0.124800
   9999 HE2        36.8360  -38.6320    6.9870 ha       625 PS       0.105800
  10000 HD2        37.8960  -38.6920    4.7470 ha       625 PS       0.124600
  10001 C2        -39.1740  -37.3820    3.3770 c3       626 PS       0.031000
  10002 C1        -39.0440  -38.9820    3.5370 c3       626 PS       0.000400
  10003 CG        -37.8540  -39.4120    4.4870 ca       626 PS       0.250900
  10004 CD1       -36.6640  -39.8620    3.9570 ca       626 PS      -0.270200
  10005 CE1       -35.6640  -40.2820    4.8570 ca       626 PS      -0.050500
  10006 CZ        -35.7440  -40.0720    6.2470 ca       626 PS      -0.188800
  10007 CE2       -36.8740  -39.4720    6.7370 ca       626 PS      -0.050500
  10008 CD2       -37.9140  -39.1620    5.8670 ca       626 PS      -0.270200
  10009 H21       -38.8740  -37.1420    2.3470 hc       626 PS      -0.016200
  10010 H22       -38.4640  -36.8420    4.0070 hc       626 PS      -0.016200
  10011 H1        -39.9440  -39.1520    4.1270 hc       626 PS      -0.005300
  10012 HD1       -36.5740  -40.0220    2.8870 ha       626 PS       0.124600
  10013 HE1       -34.7240  -40.7120    4.5170 ha       626 PS       0.105800
  10014 HZ        -34.9640  -40.3320    6.9470 ha       626 PS       0.124800
  10015 HE2       -37.0440  -39.2820    7.7870 ha       626 PS       0.105800
  10016 HD2       -38.7640  -38.7220    6.3770 ha       626 PS       0.124600
  10017 C2         40.7760   40.2280    2.2670 c3       627 PS       0.031000
  10018 C1         40.2060   38.8280    2.4170 c3       627 PS       0.000400
  10019 CG         38.8660   38.8780    3.0970 ca       627 PS       0.250900
  10020 CD1        38.8560   38.6280    4.4970 ca       627 PS      -0.270200
  10021 CE1        37.6360   38.6480    5.2170 ca       627 PS      -0.050500
  10022 CZ         36.4360   38.8580    4.5670 ca       627 PS      -0.188800
  10023 CE2        36.3860   38.9480    3.1970 ca       627 PS      -0.050500
  10024 CD2        37.6160   38.9480    2.4770 ca       627 PS      -0.270200
  10025 H21        40.1160   40.7380    1.5470 hc       627 PS      -0.016200
  10026 H22        41.7560   40.3080    1.7870 hc       627 PS      -0.016200
  10027 H1         40.9360   38.3480    3.0870 hc       627 PS      -0.005300
  10028 HD1        39.8360   38.4880    4.9370 ha       627 PS       0.124600
  10029 HE1        37.7060   38.4880    6.2870 ha       627 PS       0.105800
  10030 HZ         35.4960   38.8480    5.1170 ha       627 PS       0.124800
  10031 HE2        35.4360   39.1280    2.6970 ha       627 PS       0.105800
  10032 HD2        37.5960   38.9980    1.3970 ha       627 PS       0.124600
  10033 C2        -39.8640   37.9780    1.0470 c3       628 PS       0.031000
  10034 C1        -38.6240   38.0980    0.1070 c3       628 PS       0.000400
  10035 CG        -37.2640   37.6080    0.6970 ca       628 PS       0.250900
  10036 CD1       -37.2240   36.2480    1.0870 ca       628 PS      -0.270200
  10037 CE1       -35.9940   35.7180    1.5870 ca       628 PS      -0.050500
  10038 CZ        -34.9640   36.5780    1.8970 ca       628 PS      -0.188800
  10039 CE2       -35.0340   37.9280    1.5170 ca       628 PS      -0.050500
  10040 CD2       -36.1440   38.4580    0.8670 ca       628 PS      -0.270200
  10041 H21       -39.9440   36.9080    1.3170 hc       628 PS      -0.016200
  10042 H22       -40.7540   38.1580    0.4370 hc       628 PS      -0.016200
  10043 H1        -38.4240   39.1480   -0.1630 hc       628 PS      -0.005300
  10044 HD1       -38.0340   35.5280    1.0270 ha       628 PS       0.124600
  10045 HE1       -35.9540   34.6380    1.7670 ha       628 PS       0.105800
  10046 HZ        -34.0340   36.2580    2.3570 ha       628 PS       0.124800
  10047 HE2       -34.1840   38.5280    1.8270 ha       628 PS       0.105800
  10048 HD2       -36.1940   39.5180    0.6570 ha       628 PS       0.124600
  10049 C2        -38.9340   37.3380   -1.2530 c3       629 PS       0.031000
  10050 C1        -37.8940   37.6980   -2.3530 c3       629 PS       0.000400
  10051 CG        -36.5340   37.0080   -2.0930 ca       629 PS       0.250900
  10052 CD1       -35.3740   37.7880   -2.0930 ca       629 PS      -0.270200
  10053 CE1       -34.1640   37.1280   -1.7030 ca       629 PS      -0.050500
  10054 CZ        -34.1240   35.7580   -1.4630 ca       629 PS      -0.188800
  10055 CE2       -35.2540   34.9380   -1.6530 ca       629 PS      -0.050500
  10056 CD2       -36.4640   35.6280   -1.9030 ca       629 PS      -0.270200
  10057 H21       -39.0640   36.2780   -0.9730 hc       629 PS      -0.016200
  10058 H22       -39.8940   37.6980   -1.6530 hc       629 PS      -0.016200
  10059 H1        -37.7040   38.7780   -2.2030 hc       629 PS      -0.005300
  10060 HD1       -35.3940   38.8380   -2.3730 ha       629 PS       0.124600
  10061 HE1       -33.1740   37.5780   -1.6530 ha       629 PS       0.105800
  10062 HZ        -33.2240   35.2780   -1.0730 ha       629 PS       0.124800
  10063 HE2       -35.3740   33.8780   -1.4330 ha       629 PS       0.105800
  10064 HD2       -37.3440   35.0080   -1.9730 ha       629 PS       0.124600
  10065 C2        -38.4740   37.3680   -3.7730 c3       630 PS       0.031000
  10066 C1        -37.4440   37.6080   -4.9430 c3       630 PS       0.000400
  10067 CG        -37.8240   36.7380   -6.1630 ca       630 PS       0.250900
  10068 CD1       -37.3540   35.4280   -6.2130 ca       630 PS      -0.270200
  10069 CE1       -37.7040   34.7080   -7.4130 ca       630 PS      -0.050500
  10070 CZ        -38.5740   35.1980   -8.3830 ca       630 PS      -0.188800
  10071 CE2       -39.0140   36.4980   -8.3430 ca       630 PS      -0.050500
  10072 CD2       -38.5840   37.2880   -7.2030 ca       630 PS      -0.270200
  10073 H21       -38.7940   36.3180   -3.8230 hc       630 PS      -0.016200
  10074 H22       -39.3140   38.0380   -4.0230 hc       630 PS      -0.016200
  10075 H1        -36.4340   37.3280   -4.6230 hc       630 PS      -0.005300
  10076 HD1       -36.8940   34.9580   -5.3530 ha       630 PS       0.124600
  10077 HE1       -37.2640   33.7480   -7.6430 ha       630 PS       0.105800
  10078 HZ        -38.8240   34.6080   -9.2630 ha       630 PS       0.124800
  10079 HE2       -39.5540   36.9080   -9.1930 ha       630 PS       0.105800
  10080 HD2       -38.8840   38.3280   -7.1030 ha       630 PS       0.124600
  10081 C2        -14.3040   -5.1420    7.3470 c3       631 PS       0.031000
  10082 C1        -15.6640   -4.5520    6.8370 c3       631 PS       0.000400
  10083 CG        -15.6040   -4.3220    5.3270 ca       631 PS       0.250900
  10084 CD1       -15.2640   -3.0620    4.8570 ca       631 PS      -0.270200
  10085 CE1       -15.2040   -2.7920    3.4870 ca       631 PS      -0.050500
  10086 CZ        -15.4340   -3.8520    2.5770 ca       631 PS      -0.188800
  10087 CE2       -15.7540   -5.1320    2.9870 ca       631 PS      -0.050500
  10088 CD2       -15.7540   -5.3920    4.4170 ca       631 PS      -0.270200
  10089 H21       -14.4640   -6.2020    7.5970 hc       631 PS      -0.016200
  10090 H22       -13.9640   -4.6220    8.2470 hc       631 PS      -0.016200
  10091 H1        -15.7240   -3.5520    7.2870 hc       631 PS      -0.005300
  10092 HD1       -15.2240   -2.2520    5.5870 ha       631 PS       0.124600
  10093 HE1       -15.0040   -1.7720    3.1470 ha       631 PS       0.105800
  10094 HZ        -15.4840   -3.6320    1.5170 ha       631 PS       0.124800
  10095 HE2       -15.9140   -5.9520    2.2970 ha       631 PS       0.105800
  10096 HD2       -15.9340   -6.4120    4.7370 ha       631 PS       0.124600
  10097 C2        -16.9240   -5.3520    7.2270 c3       632 PS       0.031000
  10098 C1        -18.2840   -4.8720    6.6570 c3       632 PS       0.000400
  10099 CG        -19.0940   -6.0420    6.0870 ca       632 PS       0.250900
  10100 CD1       -19.0640   -6.3020    4.6970 ca       632 PS      -0.270200
  10101 CE1       -19.5740   -7.4720    4.1270 ca       632 PS      -0.050500
  10102 CZ        -20.1040   -8.4720    4.9870 ca       632 PS      -0.188800
  10103 CE2       -20.0140   -8.2920    6.4170 ca       632 PS      -0.050500
  10104 CD2       -19.4940   -7.1020    6.9870 ca       632 PS      -0.270200
  10105 H21       -16.7340   -6.4020    6.9770 hc       632 PS      -0.016200
  10106 H22       -16.9540   -5.3920    8.3170 hc       632 PS      -0.016200
  10107 H1        -18.0840   -4.1520    5.8470 hc       632 PS      -0.005300
  10108 HD1       -18.5340   -5.5420    4.1270 ha       632 PS       0.124600
  10109 HE1       -19.5240   -7.6620    3.0670 ha       632 PS       0.105800
  10110 HZ        -20.7240   -9.3020    4.6670 ha       632 PS       0.124800
  10111 HE2       -20.4540   -8.9620    7.1570 ha       632 PS       0.105800
  10112 HD2       -19.4340   -6.9920    8.0570 ha       632 PS       0.124600
  10113 C2        -19.0140   -3.9620    7.6570 c3       633 PS       0.031000
  10114 C1        -19.8840   -2.7520    7.1070 c3       633 PS       0.000400
  10115 CG        -18.9540   -1.5720    6.8670 ca       633 PS       0.250900
  10116 CD1       -18.0240   -1.5120    5.8070 ca       633 PS      -0.270200
  10117 CE1       -17.3240   -0.2820    5.5770 ca       633 PS      -0.050500
  10118 CZ        -17.3840    0.8080    6.4370 ca       633 PS      -0.188800
  10119 CE2       -18.2140    0.6980    7.5770 ca       633 PS      -0.050500
  10120 CD2       -18.9440   -0.4420    7.7270 ca       633 PS      -0.270200
  10121 H21       -19.6540   -4.5720    8.3070 hc       633 PS      -0.016200
  10122 H22       -18.2540   -3.5420    8.3370 hc       633 PS      -0.016200
  10123 H1        -20.4940   -2.4920    7.9770 hc       633 PS      -0.005300
  10124 HD1       -17.9240   -2.3120    5.0770 ha       633 PS       0.124600
  10125 HE1       -16.6240   -0.3220    4.7470 ha       633 PS       0.105800
  10126 HZ        -16.7040    1.6580    6.5070 ha       633 PS       0.124800
  10127 HE2       -18.3340    1.4780    8.3170 ha       633 PS       0.105800
  10128 HD2       -19.5440   -0.5620    8.6170 ha       633 PS       0.124600
  10129 C2        -20.8340   -3.0720    5.9570 c3       634 PS       0.031000
  10130 C1        -21.8540   -1.9020    5.6770 c3       634 PS       0.000400
  10131 CG        -23.0240   -1.7120    6.6770 ca       634 PS       0.250900
  10132 CD1       -23.6340   -2.8020    7.2970 ca       634 PS      -0.270200
  10133 CE1       -24.7940   -2.6620    8.0070 ca       634 PS      -0.050500
  10134 CZ        -25.4340   -1.4420    8.1470 ca       634 PS      -0.188800
  10135 CE2       -24.8440   -0.3120    7.4370 ca       634 PS      -0.050500
  10136 CD2       -23.6940   -0.5020    6.7170 ca       634 PS      -0.270200
  10137 H21       -20.2340   -3.3320    5.0670 hc       634 PS      -0.016200
  10138 H22       -21.3040   -4.0020    6.3170 hc       634 PS      -0.016200
  10139 H1        -21.2640   -0.9720    5.6970 hc       634 PS      -0.005300
  10140 HD1       -23.0940   -3.7520    7.3470 ha       634 PS       0.124600
  10141 HE1       -25.2140   -3.5420    8.4970 ha       634 PS       0.105800
  10142 HZ        -26.3040   -1.3220    8.7770 ha       634 PS       0.124800
  10143 HE2       -25.3040    0.6580    7.5670 ha       634 PS       0.105800
  10144 HD2       -23.2440    0.3680    6.2270 ha       634 PS       0.124600
  10145 C2        -22.3540   -2.0720    4.1870 c3       635 PS       0.031000
  10146 C1        -21.3340   -1.7520    3.0970 c3       635 PS       0.000400
  10147 CG        -21.0240   -3.0320    2.2970 ca       635 PS       0.250900
  10148 CD1       -22.0240   -3.7820    1.7270 ca       635 PS      -0.270200
  10149 CE1       -21.8140   -4.9120    0.9670 ca       635 PS      -0.050500
  10150 CZ        -20.4940   -5.2420    0.6970 ca       635 PS      -0.188800
  10151 CE2       -19.4140   -4.5520    1.2170 ca       635 PS      -0.050500
  10152 CD2       -19.7340   -3.4820    2.1470 ca       635 PS      -0.270200
  10153 H21       -22.8440   -3.0520    4.0970 hc       635 PS      -0.016200
  10154 H22       -23.2340   -1.4320    4.0570 hc       635 PS      -0.016200
  10155 H1        -20.4040   -1.5120    3.6270 hc       635 PS      -0.005300
  10156 HD1       -23.0540   -3.4820    1.8470 ha       635 PS       0.124600
  10157 HE1       -22.5940   -5.5320    0.5270 ha       635 PS       0.105800
  10158 HZ        -20.2940   -5.9920   -0.0630 ha       635 PS       0.124800
  10159 HE2       -18.3840   -4.7820    0.9470 ha       635 PS       0.105800
  10160 HD2       -18.9440   -2.8620    2.5770 ha       635 PS       0.124600
  10161 C2        -21.7840   -0.4820    2.3070 c3       636 PS       0.031000
  10162 C1        -20.7340    0.3280    1.4870 c3       636 PS       0.000400
  10163 CG        -21.4940    1.4280    0.7170 ca       636 PS       0.250900
  10164 CD1       -21.5040    1.3580   -0.7130 ca       636 PS      -0.270200
  10165 CE1       -22.3740    2.2080   -1.4530 ca       636 PS      -0.050500
  10166 CZ        -23.0540    3.2780   -0.8130 ca       636 PS      -0.188800
  10167 CE2       -22.9040    3.3880    0.5870 ca       636 PS      -0.050500
  10168 CD2       -22.2040    2.4680    1.3070 ca       636 PS      -0.270200
  10169 H21       -22.6740   -0.6620    1.6770 hc       636 PS      -0.016200
  10170 H22       -22.2240    0.2980    2.9370 hc       636 PS      -0.016200
  10171 H1        -20.3040   -0.4420    0.8370 hc       636 PS      -0.005300
  10172 HD1       -20.9840    0.5080   -1.1430 ha       636 PS       0.124600
  10173 HE1       -22.4840    2.1080   -2.5330 ha       636 PS       0.105800
  10174 HZ        -23.7540    3.9080   -1.3530 ha       636 PS       0.124800
  10175 HE2       -23.3040    4.2880    1.0470 ha       636 PS       0.105800
  10176 HD2       -22.2040    2.5080    2.3870 ha       636 PS       0.124600
  10177 C2        -19.6540    0.9580    2.4870 c3       637 PS       0.031000
  10178 C1        -18.7840    2.1080    1.9370 c3       637 PS       0.000400
  10179 CG        -19.4940    3.4880    1.9070 ca       637 PS       0.250900
  10180 CD1       -19.7840    3.9880    0.5870 ca       637 PS      -0.270200
  10181 CE1       -20.2540    5.2880    0.4770 ca       637 PS      -0.050500
  10182 CZ        -20.5440    6.1280    1.6270 ca       637 PS      -0.188800
  10183 CE2       -20.0940    5.6180    2.8270 ca       637 PS      -0.050500
  10184 CD2       -19.6440    4.2880    3.0370 ca       637 PS      -0.270200
  10185 H21       -20.1840    1.4580    3.2970 hc       637 PS      -0.016200
  10186 H22       -19.0040    0.1480    2.8370 hc       637 PS      -0.016200
  10187 H1        -18.2940    1.9180    0.9770 hc       637 PS      -0.005300
  10188 HD1       -19.6440    3.3180   -0.2530 ha       637 PS       0.124600
  10189 HE1       -20.5940    5.6980   -0.4730 ha       637 PS       0.105800
  10190 HZ        -20.9440    7.1280    1.5170 ha       637 PS       0.124800
  10191 HE2       -20.1240    6.2980    3.6770 ha       637 PS       0.105800
  10192 HD2       -19.3140    3.9380    4.0070 ha       637 PS       0.124600
  10193 C2        -17.5340    2.1680    2.9170 c3       638 PS       0.031000
  10194 C1        -16.5440    3.3080    2.6570 c3       638 PS       0.000400
  10195 CG        -15.9840    3.2580    1.1570 ca       638 PS       0.250900
  10196 CD1       -16.2640    4.2980    0.2370 ca       638 PS      -0.270200
  10197 CE1       -15.6640    4.2980   -1.0430 ca       638 PS      -0.050500
  10198 CZ        -14.8340    3.2480   -1.4430 ca       638 PS      -0.188800
  10199 CE2       -14.5740    2.2180   -0.6130 ca       638 PS      -0.050500
  10200 CD2       -15.1140    2.2280    0.6970 ca       638 PS      -0.270200
  10201 H21       -17.8440    2.1980    3.9670 hc       638 PS      -0.016200
  10202 H22       -17.0540    1.1880    2.7470 hc       638 PS      -0.016200
  10203 H1        -17.1940    4.1980    2.6370 hc       638 PS      -0.005300
  10204 HD1       -17.0440    5.0180    0.4870 ha       638 PS       0.124600
  10205 HE1       -15.7940    5.1080   -1.7530 ha       638 PS       0.105800
  10206 HZ        -14.3840    3.1380   -2.4230 ha       638 PS       0.124800
  10207 HE2       -13.8140    1.5180   -0.9430 ha       638 PS       0.105800
  10208 HD2       -14.8540    1.5080    1.4670 ha       638 PS       0.124600
  10209 C2        -15.3340    3.5280    3.6670 c3       639 PS       0.031000
  10210 C1        -15.1740    4.9080    4.4970 c3       639 PS       0.000400
  10211 CG        -16.1740    5.0880    5.6470 ca       639 PS       0.250900
  10212 CD1       -17.4740    5.5380    5.4270 ca       639 PS      -0.270200
  10213 CE1       -18.5340    5.3380    6.2770 ca       639 PS      -0.050500
  10214 CZ        -18.2940    4.6280    7.4970 ca       639 PS      -0.188800
  10215 CE2       -16.9840    4.1880    7.7870 ca       639 PS      -0.050500
  10216 CD2       -15.9640    4.4980    6.8770 ca       639 PS      -0.270200
  10217 H21       -15.4540    2.7380    4.4270 hc       639 PS      -0.016200
  10218 H22       -14.3840    3.2980    3.1570 hc       639 PS      -0.016200
  10219 H1        -15.4440    5.6480    3.7270 hc       639 PS      -0.005300
  10220 HD1       -17.6340    6.1080    4.5170 ha       639 PS       0.124600
  10221 HE1       -19.4940    5.7580    5.9870 ha       639 PS       0.105800
  10222 HZ        -19.1140    4.5280    8.1970 ha       639 PS       0.124800
  10223 HE2       -16.7440    3.6080    8.6770 ha       639 PS       0.105800
  10224 HD2       -15.0240    4.0280    7.1570 ha       639 PS       0.124600
  10225 C2        -13.7540    4.9880    4.9170 c3       640 PS       0.031000
  10226 C1        -13.2640    6.2980    5.6570 c3       640 PS       0.000400
  10227 CG        -11.8840    6.1880    6.3070 ca       640 PS       0.250900
  10228 CD1       -10.9240    5.3380    5.8870 ca       640 PS      -0.270200
  10229 CE1        -9.7040    5.3480    6.4170 ca       640 PS      -0.050500
  10230 CZ         -9.4240    6.2380    7.5170 ca       640 PS      -0.188800
  10231 CE2       -10.4240    7.0280    8.0970 ca       640 PS      -0.050500
  10232 CD2       -11.6340    6.9680    7.4370 ca       640 PS      -0.270200
  10233 H21       -13.4640    4.0980    5.4870 hc       640 PS      -0.016200
  10234 H22       -13.2440    4.8680    3.9570 hc       640 PS      -0.016200
  10235 H1        -13.9840    6.3480    6.4870 hc       640 PS      -0.005300
  10236 HD1       -11.1940    4.6280    5.1170 ha       640 PS       0.124600
  10237 HE1        -8.9240    4.7680    5.9370 ha       640 PS       0.105800
  10238 HZ         -8.5040    6.1980    8.0970 ha       640 PS       0.124800
  10239 HE2       -10.2140    7.6380    8.9670 ha       640 PS       0.105800
  10240 HD2       -12.3740    7.6980    7.7570 ha       640 PS       0.124600
  10241 C2        -13.3140    7.4980    4.6470 c3       641 PS       0.031000
  10242 C1        -13.1840    8.9780    5.2370 c3       641 PS       0.000400
  10243 CG        -14.4540    9.5480    5.7970 ca       641 PS       0.250900
  10244 CD1       -15.7340    9.2580    5.2070 ca       641 PS      -0.270200
  10245 CE1       -16.9540    9.5280    5.8370 ca       641 PS      -0.050500
  10246 CZ        -16.9540   10.0580    7.0870 ca       641 PS      -0.188800
  10247 CE2       -15.6740   10.3680    7.6870 ca       641 PS      -0.050500
  10248 CD2       -14.4640   10.1080    7.0470 ca       641 PS      -0.270200
  10249 H21       -12.3640    7.3580    4.1070 hc       641 PS      -0.016200
  10250 H22       -14.1540    7.4180    3.9470 hc       641 PS      -0.016200
  10251 H1        -12.5040    8.9280    6.0970 hc       641 PS      -0.005300
  10252 HD1       -15.7040    8.8280    4.2170 ha       641 PS       0.124600
  10253 HE1       -17.8740    9.2680    5.3270 ha       641 PS       0.105800
  10254 HZ        -17.9140   10.1880    7.5970 ha       641 PS       0.124800
  10255 HE2       -15.7340   10.8180    8.6670 ha       641 PS       0.105800
  10256 HD2       -13.5440   10.3980    7.5370 ha       641 PS       0.124600
  10257 C2        -12.5140    9.9980    4.2270 c3       642 PS       0.031000
  10258 C1        -11.0140    9.9180    4.0570 c3       642 PS       0.000400
  10259 CG        -10.3740    9.9880    5.4070 ca       642 PS       0.250900
  10260 CD1       -10.6640   10.9080    6.3670 ca       642 PS      -0.270200
  10261 CE1        -9.8840   11.0180    7.4870 ca       642 PS      -0.050500
  10262 CZ         -8.9040   10.0680    7.7970 ca       642 PS      -0.188800
  10263 CE2        -8.6540    9.0380    6.8970 ca       642 PS      -0.050500
  10264 CD2        -9.3140    9.0080    5.6670 ca       642 PS      -0.270200
  10265 H21       -13.0440    9.8880    3.2670 hc       642 PS      -0.016200
  10266 H22       -12.7240   11.0380    4.5170 hc       642 PS      -0.016200
  10267 H1        -10.7240    8.9680    3.5870 hc       642 PS      -0.005300
  10268 HD1       -11.5240   11.5680    6.2870 ha       642 PS       0.124600
  10269 HE1       -10.1740   11.7080    8.2770 ha       642 PS       0.105800
  10270 HZ         -8.3440   10.1880    8.7170 ha       642 PS       0.124800
  10271 HE2        -7.8540    8.3380    7.0970 ha       642 PS       0.105800
  10272 HD2        -9.1240    8.1680    5.0070 ha       642 PS       0.124600
  10273 C2        -10.6240   11.0580    3.1370 c3       643 PS       0.031000
  10274 C1         -9.0540   11.2280    2.8370 c3       643 PS       0.000400
  10275 CG         -8.8040   11.4680    1.3370 ca       643 PS       0.250900
  10276 CD1        -7.7840   10.7080    0.6670 ca       643 PS      -0.270200
  10277 CE1        -7.2940   11.1080   -0.5930 ca       643 PS      -0.050500
  10278 CZ         -7.8740   12.2280   -1.1730 ca       643 PS      -0.188800
  10279 CE2        -9.0040   12.8580   -0.6430 ca       643 PS      -0.050500
  10280 CD2        -9.4240   12.5080    0.6570 ca       643 PS      -0.270200
  10281 H21       -11.1040   10.9280    2.1470 hc       643 PS      -0.016200
  10282 H22       -11.0040   12.0180    3.5170 hc       643 PS      -0.016200
  10283 H1         -8.7140   10.2180    3.1070 hc       643 PS      -0.005300
  10284 HD1        -7.3440    9.9280    1.2770 ha       643 PS       0.124600
  10285 HE1        -6.4240   10.6180   -1.0230 ha       643 PS       0.105800
  10286 HZ         -7.6340   12.5480   -2.1830 ha       643 PS       0.124800
  10287 HE2        -9.3940   13.7480   -1.1430 ha       643 PS       0.105800
  10288 HD2       -10.1840   13.1080    1.1370 ha       643 PS       0.124600
  10289 C2         -8.3540   12.2480    3.7570 c3       644 PS       0.031000
  10290 C1         -6.7940   12.3080    3.7370 c3       644 PS       0.000400
  10291 CG         -6.2440   11.1480    4.6070 ca       644 PS       0.250900
  10292 CD1        -5.6440   10.0380    4.0170 ca       644 PS      -0.270200
  10293 CE1        -5.0640    9.0180    4.8070 ca       644 PS      -0.050500
  10294 CZ         -5.1740    9.0380    6.1970 ca       644 PS      -0.188800
  10295 CE2        -5.8840   10.0880    6.7870 ca       644 PS      -0.050500
  10296 CD2        -6.3740   11.1580    6.0370 ca       644 PS      -0.270200
  10297 H21        -8.6340   13.2280    3.3570 hc       644 PS      -0.016200
  10298 H22        -8.8140   12.2680    4.7470 hc       644 PS      -0.016200
  10299 H1         -6.4040   12.1080    2.7370 hc       644 PS      -0.005300
  10300 HD1        -5.6740    9.9180    2.9470 ha       644 PS       0.124600
  10301 HE1        -4.6340    8.1180    4.3770 ha       644 PS       0.105800
  10302 HZ         -4.7240    8.2780    6.8270 ha       644 PS       0.124800
  10303 HE2        -6.0040   10.1480    7.8570 ha       644 PS       0.105800
  10304 HD2        -6.7640   12.0280    6.5470 ha       644 PS       0.124600
  10305 C2         -6.2640   13.7180    4.2070 c3       645 PS       0.031000
  10306 C1         -4.6440   13.8380    4.2770 c3       645 PS       0.000400
  10307 CG         -3.9840   13.0280    5.3270 ca       645 PS       0.250900
  10308 CD1        -3.3740   11.7780    4.9270 ca       645 PS      -0.270200
  10309 CE1        -2.8140   10.9880    5.9170 ca       645 PS      -0.050500
  10310 CZ         -2.7740   11.3480    7.2970 ca       645 PS      -0.188800
  10311 CE2        -3.3940   12.5480    7.6870 ca       645 PS      -0.050500
  10312 CD2        -4.0740   13.3580    6.7870 ca       645 PS      -0.270200
  10313 H21        -6.6440   14.4580    3.4970 hc       645 PS      -0.016200
  10314 H22        -6.6940   14.0480    5.1570 hc       645 PS      -0.016200
  10315 H1         -4.3440   13.4580    3.2870 hc       645 PS      -0.005300
  10316 HD1        -3.3540   11.3680    3.9270 ha       645 PS       0.124600
  10317 HE1        -2.3440   10.0480    5.6570 ha       645 PS       0.105800
  10318 HZ         -2.2440   10.7180    7.9970 ha       645 PS       0.124800
  10319 HE2        -3.4140   12.7780    8.7470 ha       645 PS       0.105800
  10320 HD2        -4.6340   14.1880    7.2070 ha       645 PS       0.124600
  10321 C2         -4.2540   15.4080    4.4370 c3       646 PS       0.031000
  10322 C1         -2.7440   15.7180    4.1470 c3       646 PS       0.000400
  10323 CG         -1.8840   15.3780    5.3270 ca       646 PS       0.250900
  10324 CD1        -1.8140   16.1580    6.5370 ca       646 PS      -0.270200
  10325 CE1        -1.0140   15.7080    7.6570 ca       646 PS      -0.050500
  10326 CZ         -0.1940   14.5980    7.5270 ca       646 PS      -0.188800
  10327 CE2        -0.2340   13.8780    6.3170 ca       646 PS      -0.050500
  10328 CD2        -1.0640   14.2980    5.2870 ca       646 PS      -0.270200
  10329 H21        -4.8640   16.0580    3.8070 hc       646 PS      -0.016200
  10330 H22        -4.4640   15.7580    5.4570 hc       646 PS      -0.016200
  10331 H1         -2.3940   15.1580    3.2670 hc       646 PS      -0.005300
  10332 HD1        -2.3540   17.0980    6.6070 ha       646 PS       0.124600
  10333 HE1        -0.9940   16.3780    8.5170 ha       646 PS       0.105800
  10334 HZ          0.5160   14.2880    8.2970 ha       646 PS       0.124800
  10335 HE2         0.2760   12.9180    6.2170 ha       646 PS       0.105800
  10336 HD2        -1.0440   13.7380    4.3570 ha       646 PS       0.124600
  10337 C2         -2.6240   17.2580    3.8070 c3       647 PS       0.031000
  10338 C1         -1.1240   17.8680    3.8570 c3       647 PS       0.000400
  10339 CG         -0.0440   16.9180    3.2770 ca       647 PS       0.250900
  10340 CD1        -0.1340   16.4980    1.9070 ca       647 PS      -0.270200
  10341 CE1         0.8460   15.6580    1.3670 ca       647 PS      -0.050500
  10342 CZ          1.8560   15.1680    2.2370 ca       647 PS      -0.188800
  10343 CE2         1.9660   15.5280    3.5670 ca       647 PS      -0.050500
  10344 CD2         0.9560   16.4080    4.0770 ca       647 PS      -0.270200
  10345 H21        -3.0740   17.4080    2.8170 hc       647 PS      -0.016200
  10346 H22        -3.3040   17.8480    4.4270 hc       647 PS      -0.016200
  10347 H1         -0.9440   18.0880    4.9070 hc       647 PS      -0.005300
  10348 HD1        -0.9740   16.7680    1.2770 ha       647 PS       0.124600
  10349 HE1         0.7460   15.4180    0.3170 ha       647 PS       0.105800
  10350 HZ          2.6060   14.5180    1.8070 ha       647 PS       0.124800
  10351 HE2         2.7960   15.2780    4.2270 ha       647 PS       0.105800
  10352 HD2         0.9260   16.6080    5.1370 ha       647 PS       0.124600
  10353 C2         -1.1040   19.2280    3.1970 c3       648 PS       0.031000
  10354 C1          0.0760   20.1780    3.5970 c3       648 PS       0.000400
  10355 CG          0.2660   20.6380    5.0770 ca       648 PS       0.250900
  10356 CD1        -0.7240   20.4080    6.0370 ca       648 PS      -0.270200
  10357 CE1        -0.4740   20.7480    7.3770 ca       648 PS      -0.050500
  10358 CZ          0.7360   21.4080    7.7570 ca       648 PS      -0.188800
  10359 CE2         1.7160   21.6780    6.7170 ca       648 PS      -0.050500
  10360 CD2         1.4760   21.2480    5.3770 ca       648 PS      -0.270200
  10361 H21        -1.0940   19.0280    2.1170 hc       648 PS      -0.016200
  10362 H22        -2.0040   19.7680    3.5070 hc       648 PS      -0.016200
  10363 H1          0.9460   19.5580    3.3670 hc       648 PS      -0.005300
  10364 HD1        -1.7140   19.9880    5.8670 ha       648 PS       0.124600
  10365 HE1        -1.2640   20.5480    8.0970 ha       648 PS       0.105800
  10366 HZ          0.9460   21.6780    8.7870 ha       648 PS       0.124800
  10367 HE2         2.6260   22.2280    6.9470 ha       648 PS       0.105800
  10368 HD2         2.2760   21.5180    4.6970 ha       648 PS       0.124600
  10369 C2          0.2360   21.3380    2.6070 c3       649 PS       0.031000
  10370 C1         -0.9740   22.3280    2.3870 c3       649 PS       0.000400
  10371 CG         -0.8640   23.0080    0.9570 ca       649 PS       0.250900
  10372 CD1        -0.9440   22.1980   -0.1730 ca       649 PS      -0.270200
  10373 CE1        -0.9840   22.7680   -1.4730 ca       649 PS      -0.050500
  10374 CZ         -0.9040   24.1380   -1.7330 ca       649 PS      -0.188800
  10375 CE2        -0.7640   24.9180   -0.5930 ca       649 PS      -0.050500
  10376 CD2        -0.8540   24.4380    0.7470 ca       649 PS      -0.270200
  10377 H21         1.1160   21.8880    2.9470 hc       649 PS      -0.016200
  10378 H22         0.4960   20.9180    1.6270 hc       649 PS      -0.016200
  10379 H1         -1.8840   21.7380    2.2870 hc       649 PS      -0.005300
  10380 HD1        -0.9940   21.1280   -0.0230 ha       649 PS       0.124600
  10381 HE1        -1.0840   22.0880   -2.3030 ha       649 PS       0.105800
  10382 HZ         -0.8640   24.5580   -2.7330 ha       649 PS       0.124800
  10383 HE2        -0.6040   25.9780   -0.7530 ha       649 PS       0.105800
  10384 HD2        -0.8340   25.1780    1.5470 ha       649 PS       0.124600
  10385 C2         -1.1540   23.2580    3.6670 c3       650 PS       0.031000
  10386 C1         -2.5440   24.0480    3.7170 c3       650 PS       0.000400
  10387 CG         -3.7340   23.0980    3.4470 ca       650 PS       0.250900
  10388 CD1        -4.7340   23.4980    2.5470 ca       650 PS      -0.270200
  10389 CE1        -5.8140   22.6380    2.3670 ca       650 PS      -0.050500
  10390 CZ         -5.9840   21.4880    3.1970 ca       650 PS      -0.188800
  10391 CE2        -4.9240   21.0580    4.0770 ca       650 PS      -0.050500
  10392 CD2        -3.8740   21.9080    4.1870 ca       650 PS      -0.270200
  10393 H21        -0.9940   22.7180    4.6070 hc       650 PS      -0.016200
  10394 H22        -0.3040   23.9580    3.6970 hc       650 PS      -0.016200
  10395 H1         -2.5340   24.8380    2.9570 hc       650 PS      -0.005300
  10396 HD1        -4.6940   24.3980    1.9470 ha       650 PS       0.124600
  10397 HE1        -6.6240   22.9680    1.7070 ha       650 PS       0.105800
  10398 HZ         -6.9340   20.9680    3.2670 ha       650 PS       0.124800
  10399 HE2        -4.9440   20.2280    4.7870 ha       650 PS       0.105800
  10400 HD2        -3.0940   21.6580    4.9070 ha       650 PS       0.124600
  10401 C2         -2.6640   24.6080    5.1670 c3       651 PS       0.031000
  10402 C1         -1.7740   25.8880    5.4270 c3       651 PS       0.000400
  10403 CG         -0.2640   25.5880    5.8870 ca       651 PS       0.250900
  10404 CD1        -0.1440   24.8480    7.1070 ca       651 PS      -0.270200
  10405 CE1         1.1660   24.5180    7.5770 ca       651 PS      -0.050500
  10406 CZ          2.3260   24.8280    6.9170 ca       651 PS      -0.188800
  10407 CE2         2.2660   25.5580    5.7270 ca       651 PS      -0.050500
  10408 CD2         0.9760   25.9080    5.2070 ca       651 PS      -0.270200
  10409 H21        -3.7240   24.8280    5.2970 hc       651 PS      -0.016200
  10410 H22        -2.5540   23.8680    5.9670 hc       651 PS      -0.016200
  10411 H1         -1.8140   26.4280    4.4670 hc       651 PS      -0.005300
  10412 HD1        -0.9840   24.5980    7.7470 ha       651 PS       0.124600
  10413 HE1         1.2860   24.1180    8.5770 ha       651 PS       0.105800
  10414 HZ          3.2560   24.3680    7.2370 ha       651 PS       0.124800
  10415 HE2         3.1160   25.8980    5.1470 ha       651 PS       0.105800
  10416 HD2         0.8060   26.4180    4.2670 ha       651 PS       0.124600
  10417 C2         -2.5040   26.8380    6.4170 c3       652 PS       0.031000
  10418 C1         -3.4140   27.9280    5.7970 c3       652 PS       0.000400
  10419 CG         -4.6940   27.2880    5.4570 ca       652 PS       0.250900
  10420 CD1        -4.8940   26.9080    4.1370 ca       652 PS      -0.270200
  10421 CE1        -6.0840   26.2680    3.7470 ca       652 PS      -0.050500
  10422 CZ         -7.0940   25.9280    4.6870 ca       652 PS      -0.188800
  10423 CE2        -6.9140   26.3780    6.0370 ca       652 PS      -0.050500
  10424 CD2        -5.7240   27.0380    6.4170 ca       652 PS      -0.270200
  10425 H21        -2.9240   26.3080    7.2770 hc       652 PS      -0.016200
  10426 H22        -1.6840   27.4080    6.8770 hc       652 PS      -0.016200
  10427 H1         -2.8440   28.2480    4.9170 hc       652 PS      -0.005300
  10428 HD1        -4.2140   27.0680    3.2970 ha       652 PS       0.124600
  10429 HE1        -6.2440   25.9080    2.7270 ha       652 PS       0.105800
  10430 HZ         -8.0240   25.4180    4.4570 ha       652 PS       0.124800
  10431 HE2        -7.5840   26.0980    6.8370 ha       652 PS       0.105800
  10432 HD2        -5.4840   27.3080    7.4370 ha       652 PS       0.124600
  10433 C2         -3.5640   29.1080    6.6970 c3       653 PS       0.031000
  10434 C1         -2.6040   30.3380    6.3570 c3       653 PS       0.000400
  10435 CG         -1.1640   29.9480    6.5070 ca       653 PS       0.250900
  10436 CD1        -0.3840   29.7080    5.3770 ca       653 PS      -0.270200
  10437 CE1         0.8960   29.1280    5.4170 ca       653 PS      -0.050500
  10438 CZ          1.4060   28.8080    6.7170 ca       653 PS      -0.188800
  10439 CE2         0.6460   29.0680    7.8970 ca       653 PS      -0.050500
  10440 CD2        -0.6240   29.6780    7.7970 ca       653 PS      -0.270200
  10441 H21        -4.5840   29.4580    6.8970 hc       653 PS      -0.016200
  10442 H22        -3.2540   28.8280    7.7170 hc       653 PS      -0.016200
  10443 H1         -2.8440   30.4680    5.2970 hc       653 PS      -0.005300
  10444 HD1        -0.7340   29.9380    4.3770 ha       653 PS       0.124600
  10445 HE1         1.5360   29.0680    4.5470 ha       653 PS       0.105800
  10446 HZ          2.3760   28.3280    6.8170 ha       653 PS       0.124800
  10447 HE2         1.0260   28.8480    8.8870 ha       653 PS       0.105800
  10448 HD2        -1.1840   29.7580    8.7170 ha       653 PS       0.124600
  10449 C2         -3.0340   31.6780    7.0370 c3       654 PS       0.031000
  10450 C1         -2.5140   32.9880    6.5670 c3       654 PS       0.000400
  10451 CG         -1.0340   32.9680    6.1370 ca       654 PS       0.250900
  10452 CD1        -0.8640   33.0680    4.7570 ca       654 PS      -0.270200
  10453 CE1         0.4960   33.0280    4.2970 ca       654 PS      -0.050500
  10454 CZ          1.5160   32.8380    5.2470 ca       654 PS      -0.188800
  10455 CE2         1.3460   32.5880    6.5770 ca       654 PS      -0.050500
  10456 CD2         0.0260   32.6780    7.0470 ca       654 PS      -0.270200
  10457 H21        -4.1140   31.8180    7.1670 hc       654 PS      -0.016200
  10458 H22        -2.5940   31.5480    8.0370 hc       654 PS      -0.016200
  10459 H1         -3.1340   33.2180    5.6970 hc       654 PS      -0.005300
  10460 HD1        -1.6640   33.1780    4.0270 ha       654 PS       0.124600
  10461 HE1         0.6660   33.4780    3.3270 ha       654 PS       0.105800
  10462 HZ          2.5260   33.0080    4.8770 ha       654 PS       0.124800
  10463 HE2         2.1960   32.3080    7.1970 ha       654 PS       0.105800
  10464 HD2        -0.1440   32.4680    8.1070 ha       654 PS       0.124600
  10465 C2         -2.7640   34.1280    7.5970 c3       655 PS       0.031000
  10466 C1         -3.1140   35.5080    6.9070 c3       655 PS       0.000400
  10467 CG         -4.6040   35.5680    6.8270 ca       655 PS       0.250900
  10468 CD1        -5.3440   34.8780    5.7870 ca       655 PS      -0.270200
  10469 CE1        -6.7340   35.0080    5.7270 ca       655 PS      -0.050500
  10470 CZ         -7.4040   35.6480    6.6670 ca       655 PS      -0.188800
  10471 CE2        -6.7240   36.4080    7.6170 ca       655 PS      -0.050500
  10472 CD2        -5.3340   36.3280    7.6970 ca       655 PS      -0.270200
  10473 H21        -3.6240   33.8680    8.2370 hc       655 PS      -0.016200
  10474 H22        -1.8640   34.2680    8.2070 hc       655 PS      -0.016200
  10475 H1         -2.7140   36.2280    7.6370 hc       655 PS      -0.005300
  10476 HD1        -4.9240   34.3180    4.9570 ha       655 PS       0.124600
  10477 HE1        -7.2740   34.4780    4.9370 ha       655 PS       0.105800
  10478 HZ         -8.4840   35.6980    6.5870 ha       655 PS       0.124800
  10479 HE2        -7.3140   36.9380    8.3470 ha       655 PS       0.105800
  10480 HD2        -4.8740   36.7980    8.5570 ha       655 PS       0.124600
  10481 C2         -2.3240   35.8480    5.5870 c3       656 PS       0.031000
  10482 C1         -2.4840   37.2180    4.9470 c3       656 PS       0.000400
  10483 CG         -3.7840   37.3580    4.2070 ca       656 PS       0.250900
  10484 CD1        -4.0840   36.6780    2.9670 ca       656 PS      -0.270200
  10485 CE1        -5.3540   36.8680    2.3270 ca       656 PS      -0.050500
  10486 CZ         -6.3240   37.6980    2.8570 ca       656 PS      -0.188800
  10487 CE2        -6.0340   38.4780    4.0370 ca       656 PS      -0.050500
  10488 CD2        -4.7540   38.2980    4.6770 ca       656 PS      -0.270200
  10489 H21        -1.2540   35.6180    5.6370 hc       656 PS      -0.016200
  10490 H22        -2.5940   35.0480    4.8770 hc       656 PS      -0.016200
  10491 H1         -2.5040   37.9080    5.8070 hc       656 PS      -0.005300
  10492 HD1        -3.3640   35.9980    2.5170 ha       656 PS       0.124600
  10493 HE1        -5.5640   36.2980    1.4270 ha       656 PS       0.105800
  10494 HZ         -7.2940   37.7980    2.3770 ha       656 PS       0.124800
  10495 HE2        -6.7740   39.1680    4.4370 ha       656 PS       0.105800
  10496 HD2        -4.5040   38.8680    5.5670 ha       656 PS       0.124600
  10497 C2         -1.3140   37.7380    4.0670 c3       657 PS       0.031000
  10498 C1         -0.2340   38.5780    4.7270 c3       657 PS       0.000400
  10499 CG          0.6260   37.6080    5.5770 ca       657 PS       0.250900
  10500 CD1         0.3160   37.6280    6.9370 ca       657 PS      -0.270200
  10501 CE1         1.0060   36.8280    7.8870 ca       657 PS      -0.050500
  10502 CZ          2.0460   36.0280    7.4070 ca       657 PS      -0.188800
  10503 CE2         2.2460   35.8980    6.0370 ca       657 PS      -0.050500
  10504 CD2         1.4660   36.6480    5.1170 ca       657 PS      -0.270200
  10505 H21        -0.8940   36.7880    3.7170 hc       657 PS      -0.016200
  10506 H22        -1.6840   38.3080    3.2070 hc       657 PS      -0.016200
  10507 H1         -0.6840   39.3180    5.4070 hc       657 PS      -0.005300
  10508 HD1        -0.2940   38.4180    7.3570 ha       657 PS       0.124600
  10509 HE1         0.8160   37.0080    8.9470 ha       657 PS       0.105800
  10510 HZ          2.5860   35.4580    8.1570 ha       657 PS       0.124800
  10511 HE2         2.9960   35.2180    5.6370 ha       657 PS       0.105800
  10512 HD2         1.6460   36.7380    4.0570 ha       657 PS       0.124600
  10513 C2          0.6060   39.4580    3.7270 c3       658 PS       0.031000
  10514 C1          1.4660   40.4780    4.4570 c3       658 PS       0.000400
  10515 CG          2.5360   39.8480    5.3270 ca       658 PS       0.250900
  10516 CD1         2.5060   40.0580    6.7170 ca       658 PS      -0.270200
  10517 CE1         3.4760   39.5080    7.5470 ca       658 PS      -0.050500
  10518 CZ          4.4860   38.6680    6.9570 ca       658 PS      -0.188800
  10519 CE2         4.4860   38.4480    5.5470 ca       658 PS      -0.050500
  10520 CD2         3.5560   39.0680    4.7270 ca       658 PS      -0.270200
  10521 H21         1.1660   38.8680    2.9970 hc       658 PS      -0.016200
  10522 H22        -0.1740   40.0280    3.2070 hc       658 PS      -0.016200
  10523 H1          0.7960   41.0980    5.0570 hc       658 PS      -0.005300
  10524 HD1         1.6560   40.6380    7.0870 ha       658 PS       0.124600
  10525 HE1         3.3960   39.7080    8.6070 ha       658 PS       0.105800
  10526 HZ          5.2760   38.1880    7.5270 ha       658 PS       0.124800
  10527 HE2         5.2960   37.9280    5.0370 ha       658 PS       0.105800
  10528 HD2         3.6060   38.9280    3.6570 ha       658 PS       0.124600
  10529 C2          2.1360  -38.3920    3.5370 c3       659 PS       0.031000
  10530 C1          1.0760  -37.6320    2.6270 c3       659 PS       0.000400
  10531 CG          1.4160  -36.1020    2.5870 ca       659 PS       0.250900
  10532 CD1         2.6360  -35.7820    1.9770 ca       659 PS      -0.270200
  10533 CE1         2.9860  -34.4620    1.7970 ca       659 PS      -0.050500
  10534 CZ          2.1260  -33.4720    2.1570 ca       659 PS      -0.188800
  10535 CE2         0.9460  -33.7720    2.8170 ca       659 PS      -0.050500
  10536 CD2         0.5060  -35.0420    2.9370 ca       659 PS      -0.270200
  10537 H21         2.6960  -37.6820    4.1770 hc       659 PS      -0.016200
  10538 H22         2.9360  -38.7920    2.8970 hc       659 PS      -0.016200
  10539 H1          0.1560  -37.6720    3.2270 hc       659 PS      -0.005300
  10540 HD1         3.2560  -36.6120    1.6570 ha       659 PS       0.124600
  10541 HE1         3.9160  -34.2020    1.2970 ha       659 PS       0.105800
  10542 HZ          2.4560  -32.4520    1.9970 ha       659 PS       0.124800
  10543 HE2         0.3860  -32.9120    3.1770 ha       659 PS       0.105800
  10544 HD2        -0.5240  -35.2220    3.2370 ha       659 PS       0.124600
  10545 C2          0.9560   41.7280    1.2570 c3       660 PS       0.031000
  10546 C1         -0.3740   41.7980    0.6270 c3       660 PS       0.000400
  10547 CG         -1.2540   40.5680    0.5770 ca       660 PS       0.250900
  10548 CD1        -2.4940   40.5180    1.2170 ca       660 PS      -0.270200
  10549 CE1        -3.2440   39.3380    1.2070 ca       660 PS      -0.050500
  10550 CZ         -2.8040   38.2480    0.3970 ca       660 PS      -0.188800
  10551 CE2        -1.5740   38.2880   -0.2930 ca       660 PS      -0.050500
  10552 CD2        -0.7940   39.4480   -0.2030 ca       660 PS      -0.270200
  10553 H21         1.7260   42.0280    0.5370 hc       660 PS      -0.016200
  10554 H22         1.2360   40.6580    1.2870 hc       660 PS      -0.016200
  10555 H1         -0.8040   42.7980    0.5770 hc       660 PS      -0.005300
  10556 HD1        -2.6840   41.3280    1.9170 ha       660 PS       0.124600
  10557 HE1        -4.1940   39.2480    1.7170 ha       660 PS       0.105800
  10558 HZ         -3.3840   37.3380    0.3370 ha       660 PS       0.124800
  10559 HE2        -1.2440   37.4680   -0.9230 ha       660 PS       0.105800
  10560 HD2         0.1060   39.4580   -0.8130 ha       660 PS       0.124600
  10561 C2          7.0060  -18.4220   -6.9630 c3       661 PS       0.031000
  10562 C1          8.2060  -17.9820   -6.0630 c3       661 PS       0.000400
  10563 CG          9.1760  -17.2320   -6.8930 ca       661 PS       0.250900
  10564 CD1         8.7760  -15.9820   -7.5430 ca       661 PS      -0.270200
  10565 CE1         9.7760  -15.1820   -8.0930 ca       661 PS      -0.050500
  10566 CZ         11.1060  -15.6420   -8.1730 ca       661 PS      -0.188800
  10567 CE2        11.4160  -16.9020   -7.6330 ca       661 PS      -0.050500
  10568 CD2        10.4660  -17.6620   -6.9630 ca       661 PS      -0.270200
  10569 H21         6.5460  -19.3620   -6.6330 hc       661 PS      -0.016200
  10570 H22         7.4960  -18.5920   -7.9330 hc       661 PS      -0.016200
  10571 H1          8.7060  -18.9220   -5.7830 hc       661 PS      -0.005300
  10572 HD1         7.7460  -15.6620   -7.4230 ha       661 PS       0.124600
  10573 HE1         9.4960  -14.2520   -8.5730 ha       661 PS       0.105800
  10574 HZ         11.8560  -15.0120   -8.6530 ha       661 PS       0.124800
  10575 HE2        12.4560  -17.1920   -7.7430 ha       661 PS       0.105800
  10576 HD2        10.8360  -18.5320   -6.4330 ha       661 PS       0.124600
  10577 C2          7.8160  -17.2120   -4.7730 c3       662 PS       0.031000
  10578 C1          7.3060  -18.1820   -3.6630 c3       662 PS       0.000400
  10579 CG          8.4360  -19.1220   -3.1730 ca       662 PS       0.250900
  10580 CD1         8.2760  -20.5320   -3.1330 ca       662 PS      -0.270200
  10581 CE1         9.2860  -21.3420   -2.6230 ca       662 PS      -0.050500
  10582 CZ         10.3960  -20.8120   -2.0730 ca       662 PS      -0.188800
  10583 CE2        10.6760  -19.5020   -2.2830 ca       662 PS      -0.050500
  10584 CD2         9.6160  -18.6120   -2.7430 ca       662 PS      -0.270200
  10585 H21         8.7060  -16.6720   -4.4130 hc       662 PS      -0.016200
  10586 H22         7.0260  -16.5020   -5.0430 hc       662 PS      -0.016200
  10587 H1          6.5060  -18.7020   -4.2030 hc       662 PS      -0.005300
  10588 HD1         7.3560  -20.9020   -3.5830 ha       662 PS       0.124600
  10589 HE1         9.1660  -22.4220   -2.5630 ha       662 PS       0.105800
  10590 HZ         11.1160  -21.4820   -1.6130 ha       662 PS       0.124800
  10591 HE2        11.5660  -19.0720   -1.8430 ha       662 PS       0.105800
  10592 HD2         9.7760  -17.5420   -2.7330 ha       662 PS       0.124600
  10593 C2          6.6460  -17.4220   -2.5930 c3       663 PS       0.031000
  10594 C1          5.5760  -18.2520   -1.8730 c3       663 PS       0.000400
  10595 CG          6.0960  -19.5920   -1.2030 ca       663 PS       0.250900
  10596 CD1         6.7160  -19.5420    0.0870 ca       663 PS      -0.270200
  10597 CE1         6.9260  -20.7220    0.8470 ca       663 PS      -0.050500
  10598 CZ          6.6260  -21.9520    0.2570 ca       663 PS      -0.188800
  10599 CE2         6.0360  -21.9620   -1.0130 ca       663 PS      -0.050500
  10600 CD2         5.6460  -20.8020   -1.6930 ca       663 PS      -0.270200
  10601 H21         7.4060  -17.1220   -1.8630 hc       663 PS      -0.016200
  10602 H22         6.2560  -16.4620   -2.9430 hc       663 PS      -0.016200
  10603 H1          4.8060  -18.4020   -2.6330 hc       663 PS      -0.005300
  10604 HD1         7.0260  -18.5720    0.4770 ha       663 PS       0.124600
  10605 HE1         7.4360  -20.6020    1.7970 ha       663 PS       0.105800
  10606 HZ          6.8760  -22.8720    0.7670 ha       663 PS       0.124800
  10607 HE2         5.7060  -22.8720   -1.5130 ha       663 PS       0.105800
  10608 HD2         5.0660  -20.8720   -2.6130 ha       663 PS       0.124600
  10609 C2          4.9060  -17.3420   -0.8130 c3       664 PS       0.031000
  10610 C1          3.7960  -17.9820    0.1170 c3       664 PS       0.000400
  10611 CG          2.7860  -18.5420   -0.7730 ca       664 PS       0.250900
  10612 CD1         2.4060  -19.9020   -0.6330 ca       664 PS      -0.270200
  10613 CE1         1.3160  -20.3420   -1.3530 ca       664 PS      -0.050500
  10614 CZ          0.5660  -19.4620   -2.1430 ca       664 PS      -0.188800
  10615 CE2         0.9160  -18.0720   -2.2330 ca       664 PS      -0.050500
  10616 CD2         2.1160  -17.6320   -1.6430 ca       664 PS      -0.270200
  10617 H21         5.8060  -17.0520   -0.2730 hc       664 PS      -0.016200
  10618 H22         4.6560  -16.3620   -1.2330 hc       664 PS      -0.016200
  10619 H1          4.2860  -18.7520    0.7270 hc       664 PS      -0.005300
  10620 HD1         3.0160  -20.6120   -0.0930 ha       664 PS       0.124600
  10621 HE1         1.0860  -21.3920   -1.2130 ha       664 PS       0.105800
  10622 HZ         -0.3340  -19.8020   -2.6530 ha       664 PS       0.124800
  10623 HE2         0.2860  -17.3220   -2.7030 ha       664 PS       0.105800
  10624 HD2         2.3460  -16.5720   -1.7330 ha       664 PS       0.124600
  10625 C2          3.1760  -16.9020    1.0270 c3       665 PS       0.031000
  10626 C1          4.0860  -15.9820    2.0070 c3       665 PS       0.000400
  10627 CG          5.2160  -16.8220    2.6970 ca       665 PS       0.250900
  10628 CD1         4.7960  -17.5920    3.8170 ca       665 PS      -0.270200
  10629 CE1         5.6760  -18.4120    4.4570 ca       665 PS      -0.050500
  10630 CZ          7.0260  -18.4320    4.0770 ca       665 PS      -0.188800
  10631 CE2         7.4460  -17.5520    3.1070 ca       665 PS      -0.050500
  10632 CD2         6.5560  -16.7520    2.2970 ca       665 PS      -0.270200
  10633 H21         2.5260  -16.2020    0.4770 hc       665 PS      -0.016200
  10634 H22         2.4860  -17.4920    1.6370 hc       665 PS      -0.016200
  10635 H1          3.4060  -15.6920    2.8170 hc       665 PS      -0.005300
  10636 HD1         3.7860  -17.5620    4.2170 ha       665 PS       0.124600
  10637 HE1         5.3760  -19.1120    5.2270 ha       665 PS       0.105800
  10638 HZ          7.6960  -18.9420    4.7570 ha       665 PS       0.124800
  10639 HE2         8.5360  -17.5220    3.0170 ha       665 PS       0.105800
  10640 HD2         6.8760  -16.1920    1.4270 ha       665 PS       0.124600
  10641 C2          4.6960  -14.6820    1.4370 c3       666 PS       0.031000
  10642 C1          3.5960  -13.5520    1.2070 c3       666 PS       0.000400
  10643 CG          3.0860  -13.1420    2.5970 ca       666 PS       0.250900
  10644 CD1         3.9260  -12.7220    3.5870 ca       666 PS      -0.270200
  10645 CE1         3.3860  -12.4320    4.8670 ca       666 PS      -0.050500
  10646 CZ          2.0860  -12.7120    5.1970 ca       666 PS      -0.188800
  10647 CE2         1.2460  -13.2120    4.1970 ca       666 PS      -0.050500
  10648 CD2         1.7860  -13.3920    2.9270 ca       666 PS      -0.270200
  10649 H21         5.4160  -14.4020    2.2070 hc       666 PS      -0.016200
  10650 H22         5.2060  -14.8920    0.4870 hc       666 PS      -0.016200
  10651 H1          2.7160  -13.8620    0.6170 hc       666 PS      -0.005300
  10652 HD1         4.9760  -12.5520    3.3770 ha       666 PS       0.124600
  10653 HE1         4.0060  -11.9320    5.6070 ha       666 PS       0.105800
  10654 HZ          1.8460  -12.6620    6.2570 ha       666 PS       0.124800
  10655 HE2         0.1960  -13.3920    4.4170 ha       666 PS       0.105800
  10656 HD2         1.1060  -13.8020    2.1770 ha       666 PS       0.124600
  10657 C2          4.1360  -12.3320    0.4570 c3       667 PS       0.031000
  10658 C1          3.0260  -11.3120   -0.1430 c3       667 PS       0.000400
  10659 CG          1.9060  -11.1420    0.8370 ca       667 PS       0.250900
  10660 CD1         2.1760  -10.5120    2.0470 ca       667 PS      -0.270200
  10661 CE1         1.1160  -10.1920    2.8770 ca       667 PS      -0.050500
  10662 CZ         -0.2340  -10.4920    2.4170 ca       667 PS      -0.188800
  10663 CE2        -0.5640  -11.0720    1.1670 ca       667 PS      -0.050500
  10664 CD2         0.5860  -11.3720    0.3670 ca       667 PS      -0.270200
  10665 H21         4.8660  -11.7620    1.0470 hc       667 PS      -0.016200
  10666 H22         4.6560  -12.7420   -0.4330 hc       667 PS      -0.016200
  10667 H1          2.6360  -11.8520   -1.0230 hc       667 PS      -0.005300
  10668 HD1         3.2060  -10.4820    2.3770 ha       667 PS       0.124600
  10669 HE1         1.2360   -9.9720    3.9370 ha       667 PS       0.105800
  10670 HZ         -1.0340  -10.3420    3.1370 ha       667 PS       0.124800
  10671 HE2        -1.5240  -11.4020    0.7870 ha       667 PS       0.105800
  10672 HD2         0.3760  -11.8220   -0.6030 ha       667 PS       0.124600
  10673 C2          3.6860  -10.0320   -0.7130 c3       668 PS       0.031000
  10674 C1          2.6360   -9.3020   -1.6130 c3       668 PS       0.000400
  10675 CG          3.2660   -8.5320   -2.7530 ca       668 PS       0.250900
  10676 CD1         2.8260   -8.7120   -4.0730 ca       668 PS      -0.270200
  10677 CE1         3.3160   -7.9420   -5.1430 ca       668 PS      -0.050500
  10678 CZ          4.3560   -7.0120   -4.8230 ca       668 PS      -0.188800
  10679 CE2         4.7860   -6.8020   -3.5530 ca       668 PS      -0.050500
  10680 CD2         4.2460   -7.5320   -2.4630 ca       668 PS      -0.270200
  10681 H21         4.0860   -9.3420    0.0470 hc       668 PS      -0.016200
  10682 H22         4.5160  -10.3820   -1.3330 hc       668 PS      -0.016200
  10683 H1          1.9160  -10.0220   -2.0230 hc       668 PS      -0.005300
  10684 HD1         2.0060   -9.3820   -4.2830 ha       668 PS       0.124600
  10685 HE1         3.0160   -8.1420   -6.1630 ha       668 PS       0.105800
  10686 HZ          4.8060   -6.5020   -5.6730 ha       668 PS       0.124800
  10687 HE2         5.5460   -6.0420   -3.3730 ha       668 PS       0.105800
  10688 HD2         4.5660   -7.3020   -1.4530 ha       668 PS       0.124600
  10689 C2          1.7360   -8.3120   -0.7730 c3       669 PS       0.031000
  10690 C1          0.6560   -7.4420   -1.6030 c3       669 PS       0.000400
  10691 CG         -0.3740   -8.3020   -2.3530 ca       669 PS       0.250900
  10692 CD1        -1.2240   -9.2020   -1.7030 ca       669 PS      -0.270200
  10693 CE1        -2.1540   -9.9620   -2.4230 ca       669 PS      -0.050500
  10694 CZ         -2.2240   -9.9020   -3.8230 ca       669 PS      -0.188800
  10695 CE2        -1.4540   -8.9220   -4.5130 ca       669 PS      -0.050500
  10696 CD2        -0.5940   -8.0820   -3.7630 ca       669 PS      -0.270200
  10697 H21         1.1260   -8.9620   -0.1330 hc       669 PS      -0.016200
  10698 H22         2.3560   -7.6420   -0.1630 hc       669 PS      -0.016200
  10699 H1          1.1660   -6.7520   -2.2830 hc       669 PS      -0.005300
  10700 HD1        -1.2240   -9.3720   -0.6230 ha       669 PS       0.124600
  10701 HE1        -2.7940  -10.6620   -1.9030 ha       669 PS       0.105800
  10702 HZ         -2.8340  -10.5920   -4.3930 ha       669 PS       0.124800
  10703 HE2        -1.3840   -8.9720   -5.6030 ha       669 PS       0.105800
  10704 HD2         0.0560   -7.3820   -4.2830 ha       669 PS       0.124600
  10705 C2         -0.1540   -6.4920   -0.6030 c3       670 PS       0.031000
  10706 C1         -0.6940   -5.1520   -1.3430 c3       670 PS       0.000400
  10707 CG         -2.0640   -4.6420   -0.7830 ca       670 PS       0.250900
  10708 CD1        -3.2140   -4.5720   -1.7130 ca       670 PS      -0.270200
  10709 CE1        -4.4640   -4.4620   -1.2130 ca       670 PS      -0.050500
  10710 CZ         -4.6640   -4.1620    0.1570 ca       670 PS      -0.188800
  10711 CE2        -3.5840   -4.0820    1.1170 ca       670 PS      -0.050500
  10712 CD2        -2.2940   -4.3420    0.5870 ca       670 PS      -0.270200
  10713 H21        -1.0340   -7.0020   -0.2030 hc       670 PS      -0.016200
  10714 H22         0.4660   -6.2020    0.2570 hc       670 PS      -0.016200
  10715 H1         -0.8540   -5.3920   -2.4030 hc       670 PS      -0.005300
  10716 HD1        -3.1340   -4.7920   -2.7730 ha       670 PS       0.124600
  10717 HE1        -5.3340   -4.4320   -1.8530 ha       670 PS       0.105800
  10718 HZ         -5.6740   -4.0420    0.5370 ha       670 PS       0.124800
  10719 HE2        -3.8140   -4.0420    2.1770 ha       670 PS       0.105800
  10720 HD2        -1.4540   -4.3320    1.2770 ha       670 PS       0.124600
  10721 C2          0.4060   -4.0420   -1.2930 c3       671 PS       0.031000
  10722 C1          0.1760   -2.9620   -2.3830 c3       671 PS       0.000400
  10723 CG          0.4360   -3.6620   -3.7730 ca       671 PS       0.250900
  10724 CD1        -0.6540   -3.7720   -4.7030 ca       671 PS      -0.270200
  10725 CE1        -0.4140   -4.2920   -6.0230 ca       671 PS      -0.050500
  10726 CZ          0.9160   -4.7120   -6.3830 ca       671 PS      -0.188800
  10727 CE2         1.9960   -4.6220   -5.4030 ca       671 PS      -0.050500
  10728 CD2         1.7360   -4.1320   -4.0730 ca       671 PS      -0.270200
  10729 H21         0.3560   -3.5920   -0.2930 hc       671 PS      -0.016200
  10730 H22         1.4160   -4.4620   -1.3130 hc       671 PS      -0.016200
  10731 H1         -0.9040   -2.7520   -2.4030 hc       671 PS      -0.005300
  10732 HD1        -1.5740   -3.3320   -4.3330 ha       671 PS       0.124600
  10733 HE1        -1.1040   -4.2220   -6.8630 ha       671 PS       0.105800
  10734 HZ          1.1160   -5.0920   -7.3830 ha       671 PS       0.124800
  10735 HE2         3.0560   -4.8020   -5.5830 ha       671 PS       0.105800
  10736 HD2         2.4960   -3.9620   -3.3230 ha       671 PS       0.124600
  10737 C2          0.9660   -1.6820   -2.1030 c3       672 PS       0.031000
  10738 C1          0.4660   -0.9520   -0.8130 c3       672 PS       0.000400
  10739 CG         -0.8440   -0.0920   -1.1430 ca       672 PS       0.250900
  10740 CD1        -2.1140   -0.5520   -0.7930 ca       672 PS      -0.270200
  10741 CE1        -3.2740    0.0980   -1.0930 ca       672 PS      -0.050500
  10742 CZ         -3.1340    1.3980   -1.6130 ca       672 PS      -0.188800
  10743 CE2        -1.8740    1.9680   -1.8130 ca       672 PS      -0.050500
  10744 CD2        -0.7140    1.1980   -1.7130 ca       672 PS      -0.270200
  10745 H21         1.9460   -2.1420   -1.9030 hc       672 PS      -0.016200
  10746 H22         1.0960   -1.0520   -2.9830 hc       672 PS      -0.016200
  10747 H1          0.2260   -1.6320    0.0170 hc       672 PS      -0.005300
  10748 HD1        -2.1240   -1.5320   -0.3130 ha       672 PS       0.124600
  10749 HE1        -4.1940   -0.3920   -0.8030 ha       672 PS       0.105800
  10750 HZ         -4.0640    1.9480   -1.7630 ha       672 PS       0.124800
  10751 HE2        -1.9340    2.9680   -2.2330 ha       672 PS       0.105800
  10752 HD2         0.2660    1.6380   -1.9130 ha       672 PS       0.124600
  10753 C2          1.5660   -0.1220   -0.1930 c3       673 PS       0.031000
  10754 C1          2.7060   -0.8020    0.6370 c3       673 PS       0.000400
  10755 CG          3.6660   -1.7020   -0.1730 ca       673 PS       0.250900
  10756 CD1         3.6860   -3.0720    0.1470 ca       673 PS      -0.270200
  10757 CE1         4.5060   -3.9720   -0.5930 ca       673 PS      -0.050500
  10758 CZ          5.3660   -3.4220   -1.5330 ca       673 PS      -0.188800
  10759 CE2         5.3360   -2.0620   -1.9430 ca       673 PS      -0.050500
  10760 CD2         4.4860   -1.2020   -1.2230 ca       673 PS      -0.270200
  10761 H21         1.9560    0.3580   -1.1030 hc       673 PS      -0.016200
  10762 H22         1.1460    0.6380    0.4770 hc       673 PS      -0.016200
  10763 H1          2.2660   -1.3820    1.4570 hc       673 PS      -0.005300
  10764 HD1         3.0160   -3.5020    0.8870 ha       673 PS       0.124600
  10765 HE1         4.4060   -5.0220   -0.3430 ha       673 PS       0.105800
  10766 HZ          6.0760   -4.0420   -2.0630 ha       673 PS       0.124800
  10767 HE2         5.8360   -1.7720   -2.8630 ha       673 PS       0.105800
  10768 HD2         4.4160   -0.1320   -1.3330 ha       673 PS       0.124600
  10769 C2          3.6560    0.2980    1.3270 c3       674 PS       0.031000
  10770 C1          4.9660   -0.0920    1.9470 c3       674 PS       0.000400
  10771 CG          4.7860   -1.0620    3.1470 ca       674 PS       0.250900
  10772 CD1         5.7660   -2.0920    3.2970 ca       674 PS      -0.270200
  10773 CE1         5.8360   -2.8220    4.5170 ca       674 PS      -0.050500
  10774 CZ          4.8660   -2.6020    5.4870 ca       674 PS      -0.188800
  10775 CE2         3.9260   -1.5720    5.3470 ca       674 PS      -0.050500
  10776 CD2         3.8660   -0.8020    4.1970 ca       674 PS      -0.270200
  10777 H21         3.9060    1.0780    0.5970 hc       674 PS      -0.016200
  10778 H22         3.0660    0.7480    2.1270 hc       674 PS      -0.016200
  10779 H1          5.6460   -0.5420    1.2170 hc       674 PS      -0.005300
  10780 HD1         6.3560   -2.3720    2.4270 ha       674 PS       0.124600
  10781 HE1         6.5760   -3.5920    4.6670 ha       674 PS       0.105800
  10782 HZ          4.7960   -3.2220    6.3770 ha       674 PS       0.124800
  10783 HE2         3.1660   -1.3420    6.0870 ha       674 PS       0.105800
  10784 HD2         3.1460    0.0080    4.1070 ha       674 PS       0.124600
  10785 C2          5.6460    1.2380    2.4270 c3       675 PS       0.031000
  10786 C1          7.1660    1.0280    2.7170 c3       675 PS       0.000400
  10787 CG          7.5660    0.2180    3.9570 ca       675 PS       0.250900
  10788 CD1         8.6360   -0.7020    3.8870 ca       675 PS      -0.270200
  10789 CE1         9.0460   -1.3820    5.0270 ca       675 PS      -0.050500
  10790 CZ          8.3260   -1.2320    6.2470 ca       675 PS      -0.188800
  10791 CE2         7.2760   -0.3020    6.3270 ca       675 PS      -0.050500
  10792 CD2         6.8560    0.3580    5.1370 ca       675 PS      -0.270200
  10793 H21         5.5160    1.9780    1.6270 hc       675 PS      -0.016200
  10794 H22         5.1360    1.6580    3.2970 hc       675 PS      -0.016200
  10795 H1          7.4460    0.3480    1.9070 hc       675 PS      -0.005300
  10796 HD1         9.0060   -1.0420    2.9270 ha       675 PS       0.124600
  10797 HE1         9.8260   -2.1320    4.9970 ha       675 PS       0.105800
  10798 HZ          8.5660   -1.8020    7.1370 ha       675 PS       0.124800
  10799 HE2         6.6560   -0.4020    7.2070 ha       675 PS       0.105800
  10800 HD2         5.9060    0.8680    5.1770 ha       675 PS       0.124600
  10801 C2          8.0260    2.3180    2.5070 c3       676 PS       0.031000
  10802 C1          8.2360    3.2780    3.7270 c3       676 PS       0.000400
  10803 CG          6.9460    3.5280    4.4670 ca       676 PS       0.250900
  10804 CD1         6.9760    3.2580    5.8270 ca       676 PS      -0.270200
  10805 CE1         5.8660    3.4480    6.6770 ca       676 PS      -0.050500
  10806 CZ          4.6260    3.7980    6.1070 ca       676 PS      -0.188800
  10807 CE2         4.5360    4.0580    4.7470 ca       676 PS      -0.050500
  10808 CD2         5.6960    4.0180    3.9670 ca       676 PS      -0.270200
  10809 H21         8.9960    2.0780    2.0570 hc       676 PS      -0.016200
  10810 H22         7.5060    2.8880    1.7170 hc       676 PS      -0.016200
  10811 H1          8.9660    2.8180    4.4070 hc       676 PS      -0.005300
  10812 HD1         7.8860    2.8780    6.2670 ha       676 PS       0.124600
  10813 HE1         6.0260    3.1480    7.7170 ha       676 PS       0.105800
  10814 HZ          3.7860    3.8480    6.7970 ha       676 PS       0.124800
  10815 HE2         3.5960    4.3380    4.2570 ha       676 PS       0.105800
  10816 HD2         5.6060    4.3180    2.9270 ha       676 PS       0.124600
  10817 C2          8.7560    4.6280    3.1470 c3       677 PS       0.031000
  10818 C1          9.1860    5.7280    4.0970 c3       677 PS       0.000400
  10819 CG         10.4960    5.4580    4.8470 ca       677 PS       0.250900
  10820 CD1        10.4960    4.8380    6.0870 ca       677 PS      -0.270200
  10821 CE1        11.6960    4.6080    6.8470 ca       677 PS      -0.050500
  10822 CZ         12.8960    5.0280    6.2270 ca       677 PS      -0.188800
  10823 CE2        12.9460    5.5080    4.9370 ca       677 PS      -0.050500
  10824 CD2        11.7360    5.7380    4.2470 ca       677 PS      -0.270200
  10825 H21         9.6060    4.5280    2.4470 hc       677 PS      -0.016200
  10826 H22         8.0260    5.0680    2.4670 hc       677 PS      -0.016200
  10827 H1          8.3860    5.8480    4.8370 hc       677 PS      -0.005300
  10828 HD1         9.5960    4.4980    6.5870 ha       677 PS       0.124600
  10829 HE1        11.7460    4.2280    7.8570 ha       677 PS       0.105800
  10830 HZ         13.7760    4.7180    6.7770 ha       677 PS       0.124800
  10831 HE2        13.9260    5.5280    4.4670 ha       677 PS       0.105800
  10832 HD2        11.6860    6.0180    3.1970 ha       677 PS       0.124600
  10833 C2          9.1260    7.1380    3.3270 c3       678 PS       0.031000
  10834 C1          9.7360    8.4380    4.0870 c3       678 PS       0.000400
  10835 CG          9.4760    8.4280    5.5770 ca       678 PS       0.250900
  10836 CD1        10.5860    8.2480    6.4670 ca       678 PS      -0.270200
  10837 CE1        10.3760    7.9680    7.8170 ca       678 PS      -0.050500
  10838 CZ          9.0460    7.9680    8.2970 ca       678 PS      -0.188800
  10839 CE2         7.9960    8.1580    7.4470 ca       678 PS      -0.050500
  10840 CD2         8.1560    8.4780    6.0870 ca       678 PS      -0.270200
  10841 H21         9.6160    6.9980    2.3470 hc       678 PS      -0.016200
  10842 H22         8.1160    7.3680    2.9870 hc       678 PS      -0.016200
  10843 H1         10.8160    8.3280    3.9270 hc       678 PS      -0.005300
  10844 HD1        11.6160    8.1380    6.1370 ha       678 PS       0.124600
  10845 HE1        11.1860    7.6580    8.4670 ha       678 PS       0.105800
  10846 HZ          8.8960    7.6780    9.3370 ha       678 PS       0.124800
  10847 HE2         6.9760    8.0280    7.7970 ha       678 PS       0.105800
  10848 HD2         7.2660    8.4980    5.4670 ha       678 PS       0.124600
  10849 C2          9.3960    9.7780    3.3870 c3       679 PS       0.031000
  10850 C1         10.6060   10.7180    3.3270 c3       679 PS       0.000400
  10851 CG         10.9560   11.1680    4.7070 ca       679 PS       0.250900
  10852 CD1        12.2360   10.8380    5.1770 ca       679 PS      -0.270200
  10853 CE1        12.7460   11.2380    6.3670 ca       679 PS      -0.050500
  10854 CZ         11.9560   11.8780    7.2970 ca       679 PS      -0.188800
  10855 CE2        10.6760   12.3180    6.8770 ca       679 PS      -0.050500
  10856 CD2        10.1660   11.8380    5.6370 ca       679 PS      -0.270200
  10857 H21         8.9760    9.5980    2.3870 hc       679 PS      -0.016200
  10858 H22         8.5960   10.2480    3.9670 hc       679 PS      -0.016200
  10859 H1         11.4560   10.1680    2.9070 hc       679 PS      -0.005300
  10860 HD1        12.9560   10.3980    4.4970 ha       679 PS       0.124600
  10861 HE1        13.7560   10.9580    6.6670 ha       679 PS       0.105800
  10862 HZ         12.3660   12.2080    8.2370 ha       679 PS       0.124800
  10863 HE2        10.0960   12.8880    7.5970 ha       679 PS       0.105800
  10864 HD2         9.1560   12.1380    5.3570 ha       679 PS       0.124600
  10865 C2         10.2960   11.9680    2.3770 c3       680 PS       0.031000
  10866 C1         11.5560   12.8480    2.0270 c3       680 PS       0.000400
  10867 CG         12.7760   11.9780    1.5570 ca       680 PS       0.250900
  10868 CD1        12.6360   11.2380    0.4270 ca       680 PS      -0.270200
  10869 CE1        13.6960   10.4680   -0.0230 ca       680 PS      -0.050500
  10870 CZ         14.8560   10.2880    0.7270 ca       680 PS      -0.188800
  10871 CE2        15.0960   11.1080    1.8570 ca       680 PS      -0.050500
  10872 CD2        14.0260   11.8980    2.2870 ca       680 PS      -0.270200
  10873 H21         9.9060   11.6180    1.4070 hc       680 PS      -0.016200
  10874 H22         9.5160   12.5680    2.8570 hc       680 PS      -0.016200
  10875 H1         11.8660   13.3380    2.9570 hc       680 PS      -0.005300
  10876 HD1        11.7660   11.2780   -0.2130 ha       680 PS       0.124600
  10877 HE1        13.5060   10.0580   -1.0130 ha       680 PS       0.105800
  10878 HZ         15.6760    9.6780    0.3470 ha       680 PS       0.124800
  10879 HE2        16.0760   11.1580    2.3270 ha       680 PS       0.105800
  10880 HD2        14.2360   12.5480    3.1370 ha       680 PS       0.124600
  10881 C2         11.1060   13.9680    1.0470 c3       681 PS       0.031000
  10882 C1         12.2560   14.7180    0.2070 c3       681 PS       0.000400
  10883 CG         13.4360   15.0980    1.1070 ca       681 PS       0.250900
  10884 CD1        14.6360   14.3780    0.8970 ca       681 PS      -0.270200
  10885 CE1        15.7460   14.6880    1.6670 ca       681 PS      -0.050500
  10886 CZ         15.6560   15.7080    2.7170 ca       681 PS      -0.188800
  10887 CE2        14.4460   16.4580    2.9470 ca       681 PS      -0.050500
  10888 CD2        13.3960   16.0580    2.1370 ca       681 PS      -0.270200
  10889 H21        10.4260   13.6980    0.2270 hc       681 PS      -0.016200
  10890 H22        10.5060   14.7580    1.5370 hc       681 PS      -0.016200
  10891 H1         12.5560   13.8580   -0.4030 hc       681 PS      -0.005300
  10892 HD1        14.7460   13.6480    0.0970 ha       681 PS       0.124600
  10893 HE1        16.6660   14.1080    1.6770 ha       681 PS       0.105800
  10894 HZ         16.4760   15.9680    3.3770 ha       681 PS       0.124800
  10895 HE2        14.3560   17.1080    3.8070 ha       681 PS       0.105800
  10896 HD2        12.5260   16.6580    2.3770 ha       681 PS       0.124600
  10897 C2         11.7960   15.8880   -0.7430 c3       682 PS       0.031000
  10898 C1         12.7360   16.0480   -1.9430 c3       682 PS       0.000400
  10899 CG         11.8760   16.3780   -3.2230 ca       682 PS       0.250900
  10900 CD1        12.0660   15.6680   -4.4430 ca       682 PS      -0.270200
  10901 CE1        11.4660   16.1280   -5.6330 ca       682 PS      -0.050500
  10902 CZ         10.6460   17.2580   -5.6230 ca       682 PS      -0.188800
  10903 CE2        10.2760   17.8880   -4.4230 ca       682 PS      -0.050500
  10904 CD2        10.9060   17.4180   -3.1930 ca       682 PS      -0.270200
  10905 H21        10.8460   15.5980   -1.2030 hc       682 PS      -0.016200
  10906 H22        11.6560   16.8380   -0.2130 hc       682 PS      -0.016200
  10907 H1         13.3160   15.1280   -2.0830 hc       682 PS      -0.005300
  10908 HD1        12.7460   14.8180   -4.4830 ha       682 PS       0.124600
  10909 HE1        11.6760   15.6380   -6.5730 ha       682 PS       0.105800
  10910 HZ         10.2760   17.6680   -6.5530 ha       682 PS       0.124800
  10911 HE2         9.6660   18.7880   -4.3730 ha       682 PS       0.105800
  10912 HD2        10.6060   17.8180   -2.2230 ha       682 PS       0.124600
  10913 C2         13.7260   17.3280   -1.8730 c3       683 PS       0.031000
  10914 C1         14.9660   17.3380   -2.7530 c3       683 PS       0.000400
  10915 CG         15.7260   16.1080   -2.7230 ca       683 PS       0.250900
  10916 CD1        15.9960   15.4880   -3.9330 ca       683 PS      -0.270200
  10917 CE1        16.7760   14.3480   -4.0930 ca       683 PS      -0.050500
  10918 CZ         17.4160   13.8280   -2.9930 ca       683 PS      -0.188800
  10919 CE2        17.1960   14.4180   -1.7230 ca       683 PS      -0.050500
  10920 CD2        16.3660   15.6280   -1.5730 ca       683 PS      -0.270200
  10921 H21        13.4060   18.3680   -1.7230 hc       683 PS      -0.016200
  10922 H22        14.2260   17.2280   -0.9030 hc       683 PS      -0.016200
  10923 H1         14.4760   17.4680   -3.7230 hc       683 PS      -0.005300
  10924 HD1        15.4560   15.7380   -4.8430 ha       683 PS       0.124600
  10925 HE1        16.8860   13.7480   -4.9830 ha       683 PS       0.105800
  10926 HZ         18.1760   13.0680   -3.1230 ha       683 PS       0.124800
  10927 HE2        17.5860   13.9280   -0.8430 ha       683 PS       0.105800
  10928 HD2        16.4460   16.1880   -0.6430 ha       683 PS       0.124600
  10929 C2         15.9560   18.6080   -2.4830 c3       684 PS       0.031000
  10930 C1         16.9860   18.8480   -3.6230 c3       684 PS       0.000400
  10931 CG         18.1260   17.7780   -3.7830 ca       684 PS       0.250900
  10932 CD1        18.5460   17.2580   -5.0530 ca       684 PS      -0.270200
  10933 CE1        19.6260   16.3180   -5.1830 ca       684 PS      -0.050500
  10934 CZ         20.2760   15.8280   -4.0830 ca       684 PS      -0.188800
  10935 CE2        19.8560   16.3480   -2.8130 ca       684 PS      -0.050500
  10936 CD2        18.8260   17.2680   -2.6930 ca       684 PS      -0.270200
  10937 H21        15.2960   19.4880   -2.4330 hc       684 PS      -0.016200
  10938 H22        16.3860   18.3780   -1.5130 hc       684 PS      -0.016200
  10939 H1         16.3860   18.7880   -4.5330 hc       684 PS      -0.005300
  10940 HD1        18.0760   17.5880   -5.9830 ha       684 PS       0.124600
  10941 HE1        19.9860   16.0380   -6.1730 ha       684 PS       0.105800
  10942 HZ         21.0160   15.0480   -4.2130 ha       684 PS       0.124800
  10943 HE2        20.4260   16.0280   -1.9430 ha       684 PS       0.105800
  10944 HD2        18.5060   17.6480   -1.7230 ha       684 PS       0.124600
  10945 C2         17.6560   20.2880   -3.4530 c3       685 PS       0.031000
  10946 C1         17.8560   20.9980   -4.7830 c3       685 PS       0.000400
  10947 CG         18.9060   20.3980   -5.7330 ca       685 PS       0.250900
  10948 CD1        18.6560   19.9680   -7.0030 ca       685 PS      -0.270200
  10949 CE1        19.7460   19.4280   -7.8430 ca       685 PS      -0.050500
  10950 CZ         21.0760   19.4680   -7.3430 ca       685 PS      -0.188800
  10951 CE2        21.2760   19.6980   -5.9730 ca       685 PS      -0.050500
  10952 CD2        20.2160   20.1780   -5.1930 ca       685 PS      -0.270200
  10953 H21        16.9360   20.8780   -2.8730 hc       685 PS      -0.016200
  10954 H22        18.5960   20.1780   -2.9130 hc       685 PS      -0.016200
  10955 H1         16.8460   21.0480   -5.2230 hc       685 PS      -0.005300
  10956 HD1        17.6660   19.9680   -7.4530 ha       685 PS       0.124600
  10957 HE1        19.5160   19.2080   -8.8830 ha       685 PS       0.105800
  10958 HZ         21.8760   19.1080   -7.9830 ha       685 PS       0.124800
  10959 HE2        22.2760   19.6180   -5.5830 ha       685 PS       0.105800
  10960 HD2        20.5260   20.3180   -4.1630 ha       685 PS       0.124600
  10961 C2         18.2660   22.4680   -4.4030 c3       686 PS       0.031000
  10962 C1         18.6760   23.5680   -5.4530 c3       686 PS       0.000400
  10963 CG         20.0960   23.3380   -5.8230 ca       686 PS       0.250900
  10964 CD1        20.3660   23.2580   -7.1930 ca       686 PS      -0.270200
  10965 CE1        21.6860   23.0880   -7.6530 ca       686 PS      -0.050500
  10966 CZ         22.7560   22.8880   -6.7430 ca       686 PS      -0.188800
  10967 CE2        22.5060   22.9580   -5.3530 ca       686 PS      -0.050500
  10968 CD2        21.1260   23.0980   -4.9130 ca       686 PS      -0.270200
  10969 H21        17.3960   22.8180   -3.8430 hc       686 PS      -0.016200
  10970 H22        19.0260   22.3480   -3.6230 hc       686 PS      -0.016200
  10971 H1         18.0760   23.3980   -6.3530 hc       686 PS      -0.005300
  10972 HD1        19.5660   23.4380   -7.9030 ha       686 PS       0.124600
  10973 HE1        21.8560   23.1380   -8.7230 ha       686 PS       0.105800
  10974 HZ         23.7460   22.7980   -7.1830 ha       686 PS       0.124800
  10975 HE2        23.2960   22.7580   -4.6330 ha       686 PS       0.105800
  10976 HD2        21.0160   23.1280   -3.8330 ha       686 PS       0.124600
  10977 C2         18.2560   25.0580   -5.0930 c3       687 PS       0.031000
  10978 C1         18.9860   26.2380   -5.8030 c3       687 PS       0.000400
  10979 CG         18.0360   27.4080   -5.7230 ca       687 PS       0.250900
  10980 CD1        17.6160   28.0480   -6.8930 ca       687 PS      -0.270200
  10981 CE1        16.8460   29.1580   -6.8830 ca       687 PS      -0.050500
  10982 CZ         16.3560   29.6580   -5.6630 ca       687 PS      -0.188800
  10983 CE2        16.7060   29.0480   -4.4530 ca       687 PS      -0.050500
  10984 CD2        17.6260   27.9780   -4.5230 ca       687 PS      -0.270200
  10985 H21        17.1660   25.1780   -5.2030 hc       687 PS      -0.016200
  10986 H22        18.5460   25.1880   -4.0430 hc       687 PS      -0.016200
  10987 H1         19.1760   25.9180   -6.8330 hc       687 PS      -0.005300
  10988 HD1        17.9460   27.7080   -7.8730 ha       687 PS       0.124600
  10989 HE1        16.5160   29.6080   -7.8130 ha       687 PS       0.105800
  10990 HZ         15.8460   30.6180   -5.6930 ha       687 PS       0.124800
  10991 HE2        16.4960   29.6280   -3.5530 ha       687 PS       0.105800
  10992 HD2        18.0460   27.6180   -3.5930 ha       687 PS       0.124600
  10993 C2         20.4460   26.4880   -5.2330 c3       688 PS       0.031000
  10994 C1         21.4360   27.1080   -6.2530 c3       688 PS       0.000400
  10995 CG         21.0560   28.5580   -6.3630 ca       688 PS       0.250900
  10996 CD1        20.3460   28.9880   -7.5530 ca       688 PS      -0.270200
  10997 CE1        20.1060   30.3880   -7.8230 ca       688 PS      -0.050500
  10998 CZ         20.4660   31.3480   -6.8430 ca       688 PS      -0.188800
  10999 CE2        21.0760   30.8980   -5.6630 ca       688 PS      -0.050500
  11000 CD2        21.3760   29.5780   -5.4130 ca       688 PS      -0.270200
  11001 H21        20.5060   26.9780   -4.2530 hc       688 PS      -0.016200
  11002 H22        20.8160   25.5480   -4.8030 hc       688 PS      -0.016200
  11003 H1         21.3560   26.5380   -7.1930 hc       688 PS      -0.005300
  11004 HD1        20.0360   28.2280   -8.2630 ha       688 PS       0.124600
  11005 HE1        19.6460   30.6280   -8.7730 ha       688 PS       0.105800
  11006 HZ         20.4060   32.4180   -7.0530 ha       688 PS       0.124800
  11007 HE2        21.4260   31.6380   -4.9530 ha       688 PS       0.105800
  11008 HD2        21.8660   29.3080   -4.4930 ha       688 PS       0.124600
  11009 C2         23.0060   27.0180   -5.8030 c3       689 PS       0.031000
  11010 C1         24.0360   27.0780   -7.0130 c3       689 PS       0.000400
  11011 CG         24.8560   28.4880   -7.1330 ca       689 PS       0.250900
  11012 CD1        24.2660   29.5280   -7.8330 ca       689 PS      -0.270200
  11013 CE1        24.9860   30.7580   -7.9730 ca       689 PS      -0.050500
  11014 CZ         26.2660   31.0080   -7.4830 ca       689 PS      -0.188800
  11015 CE2        26.8860   29.9080   -6.8130 ca       689 PS      -0.050500
  11016 CD2        26.1360   28.6980   -6.6430 ca       689 PS      -0.270200
  11017 H21        23.3060   27.6380   -4.9530 hc       689 PS      -0.016200
  11018 H22        23.0260   26.0480   -5.2830 hc       689 PS      -0.016200
  11019 H1         23.5160   27.1280   -7.9830 hc       689 PS      -0.005300
  11020 HD1        23.2560   29.4280   -8.2230 ha       689 PS       0.124600
  11021 HE1        24.4460   31.5580   -8.4830 ha       689 PS       0.105800
  11022 HZ         26.7560   31.9780   -7.5530 ha       689 PS       0.124800
  11023 HE2        27.8860   30.0180   -6.4030 ha       689 PS       0.105800
  11024 HD2        26.6560   27.8680   -6.1830 ha       689 PS       0.124600
  11025 C2         24.9960   25.8980   -6.9830 c3       690 PS       0.031000
  11026 C1         26.0060   25.9180   -8.1830 c3       690 PS       0.000400
  11027 CG         27.3760   25.1580   -7.9730 ca       690 PS       0.250900
  11028 CD1        27.3660   23.7880   -7.9130 ca       690 PS      -0.270200
  11029 CE1        28.6160   23.1280   -7.8130 ca       690 PS      -0.050500
  11030 CZ         29.8160   23.7980   -7.9530 ca       690 PS      -0.188800
  11031 CE2        29.8060   25.1880   -8.1130 ca       690 PS      -0.050500
  11032 CD2        28.5860   25.8680   -8.0830 ca       690 PS      -0.270200
  11033 H21        25.5360   25.8680   -6.0330 hc       690 PS      -0.016200
  11034 H22        24.4160   24.9580   -6.9830 hc       690 PS      -0.016200
  11035 H1         25.4560   25.5780   -9.0630 hc       690 PS      -0.005300
  11036 HD1        26.4560   23.1980   -7.8730 ha       690 PS       0.124600
  11037 HE1        28.5960   22.0480   -7.6830 ha       690 PS       0.105800
  11038 HZ         30.7260   23.2080   -7.8930 ha       690 PS       0.124800
  11039 HE2        30.7460   25.7280   -8.1230 ha       690 PS       0.105800
  11040 HD2        28.5060   26.9480   -8.1530 ha       690 PS       0.124600
  11041 C2         21.7560   -9.2720    7.8370 c3       691 PS       0.031000
  11042 C1         22.9160   -9.3220    6.7770 c3       691 PS       0.000400
  11043 CG         23.6560   -7.9220    6.5670 ca       691 PS       0.250900
  11044 CD1        24.4860   -7.7120    5.5070 ca       691 PS      -0.270200
  11045 CE1        25.2260   -6.5820    5.4770 ca       691 PS      -0.050500
  11046 CZ         25.1060   -5.5320    6.4270 ca       691 PS      -0.188800
  11047 CE2        24.1460   -5.7220    7.3970 ca       691 PS      -0.050500
  11048 CD2        23.3960   -6.9320    7.5370 ca       691 PS      -0.270200
  11049 H21        21.1860  -10.2020    7.7370 hc       691 PS      -0.016200
  11050 H22        21.2060   -8.3320    7.9570 hc       691 PS      -0.016200
  11051 H1         22.3860   -9.4620    5.8270 hc       691 PS      -0.005300
  11052 HD1        24.5460   -8.4620    4.7170 ha       691 PS       0.124600
  11053 HE1        26.0160   -6.4820    4.7370 ha       691 PS       0.105800
  11054 HZ         25.8460   -4.7520    6.5470 ha       691 PS       0.124800
  11055 HE2        24.1360   -4.9220    8.1270 ha       691 PS       0.105800
  11056 HD2        22.8760   -7.1620    8.4570 ha       691 PS       0.124600
  11057 C2         23.9460  -10.4720    7.0470 c3       692 PS       0.031000
  11058 C1         23.4160  -11.9520    6.9070 c3       692 PS       0.000400
  11059 CG         22.6960  -12.2620    5.5970 ca       692 PS       0.250900
  11060 CD1        21.8060  -13.3320    5.5070 ca       692 PS      -0.270200
  11061 CE1        21.2160  -13.7220    4.3170 ca       692 PS      -0.050500
  11062 CZ         21.4460  -12.9720    3.1270 ca       692 PS      -0.188800
  11063 CE2        22.3860  -11.9920    3.1870 ca       692 PS      -0.050500
  11064 CD2        23.0460  -11.5820    4.3570 ca       692 PS      -0.270200
  11065 H21        24.8560  -10.4120    6.4370 hc       692 PS      -0.016200
  11066 H22        24.4060  -10.4220    8.0370 hc       692 PS      -0.016200
  11067 H1         22.6560  -11.9620    7.6970 hc       692 PS      -0.005300
  11068 HD1        21.6060  -13.9320    6.3870 ha       692 PS       0.124600
  11069 HE1        20.4860  -14.5320    4.2970 ha       692 PS       0.105800
  11070 HZ         20.9460  -13.2520    2.2070 ha       692 PS       0.124800
  11071 HE2        22.6660  -11.4320    2.2970 ha       692 PS       0.105800
  11072 HD2        23.7660  -10.7720    4.2970 ha       692 PS       0.124600
  11073 C2         24.3960  -13.0020    7.4670 c3       693 PS       0.031000
  11074 C1         25.4560  -13.5820    6.4170 c3       693 PS       0.000400
  11075 CG         26.3460  -12.4920    5.7570 ca       693 PS       0.250900
  11076 CD1        26.3260  -12.3520    4.3670 ca       693 PS      -0.270200
  11077 CE1        27.0860  -11.3820    3.7070 ca       693 PS      -0.050500
  11078 CZ         27.9460  -10.5320    4.4870 ca       693 PS      -0.188800
  11079 CE2        27.8860  -10.5420    5.9070 ca       693 PS      -0.050500
  11080 CD2        27.1460  -11.5820    6.5070 ca       693 PS      -0.270200
  11081 H21        25.0060  -12.5720    8.2770 hc       693 PS      -0.016200
  11082 H22        23.7560  -13.8520    7.7370 hc       693 PS      -0.016200
  11083 H1         24.8360  -14.0520    5.6370 hc       693 PS      -0.005300
  11084 HD1        25.6560  -12.9620    3.7670 ha       693 PS       0.124600
  11085 HE1        26.9860  -11.2820    2.6370 ha       693 PS       0.105800
  11086 HZ         28.5560   -9.7820    3.9870 ha       693 PS       0.124800
  11087 HE2        28.4460   -9.8320    6.5070 ha       693 PS       0.105800
  11088 HD2        27.0560  -11.5820    7.5870 ha       693 PS       0.124600
  11089 C2         26.3360  -14.6720    7.0870 c3       694 PS       0.031000
  11090 C1         27.1560  -15.4820    6.1870 c3       694 PS       0.000400
  11091 CG         26.3360  -16.5220    5.4270 ca       694 PS       0.250900
  11092 CD1        25.9960  -17.6920    6.1170 ca       694 PS      -0.270200
  11093 CE1        25.2460  -18.6620    5.4770 ca       694 PS      -0.050500
  11094 CZ         24.8360  -18.4620    4.1870 ca       694 PS      -0.188800
  11095 CE2        24.8760  -17.2020    3.5670 ca       694 PS      -0.050500
  11096 CD2        25.7460  -16.2320    4.1570 ca       694 PS      -0.270200
  11097 H21        26.9760  -14.1920    7.8370 hc       694 PS      -0.016200
  11098 H22        25.6060  -15.3220    7.5870 hc       694 PS      -0.016200
  11099 H1         27.7260  -14.9020    5.4470 hc       694 PS      -0.005300
  11100 HD1        26.3460  -17.8020    7.1370 ha       694 PS       0.124600
  11101 HE1        25.1960  -19.6620    5.9070 ha       694 PS       0.105800
  11102 HZ         24.2860  -19.2820    3.7270 ha       694 PS       0.124800
  11103 HE2        24.4760  -17.1520    2.5670 ha       694 PS       0.105800
  11104 HD2        25.8960  -15.2920    3.6270 ha       694 PS       0.124600
  11105 C2         28.3560  -16.2020    6.9470 c3       695 PS       0.031000
  11106 C1         29.5160  -16.7920    6.0770 c3       695 PS       0.000400
  11107 CG         30.7960  -16.8120    6.9670 ca       695 PS       0.250900
  11108 CD1        31.4560  -15.5520    7.1470 ca       695 PS      -0.270200
  11109 CE1        32.7260  -15.4720    7.7470 ca       695 PS      -0.050500
  11110 CZ         33.3960  -16.6720    7.9970 ca       695 PS      -0.188800
  11111 CE2        32.6960  -17.9020    8.0170 ca       695 PS      -0.050500
  11112 CD2        31.3760  -17.9520    7.5370 ca       695 PS      -0.270200
  11113 H21        28.8560  -15.3920    7.4970 hc       695 PS      -0.016200
  11114 H22        28.0760  -16.8620    7.7770 hc       695 PS      -0.016200
  11115 H1         29.7360  -16.0920    5.2670 hc       695 PS      -0.005300
  11116 HD1        30.8660  -14.7020    6.8470 ha       695 PS       0.124600
  11117 HE1        33.1960  -14.4920    7.7170 ha       695 PS       0.105800
  11118 HZ         34.3860  -16.5620    8.4370 ha       695 PS       0.124800
  11119 HE2        33.0960  -18.8720    8.2970 ha       695 PS       0.105800
  11120 HD2        30.8260  -18.8920    7.5770 ha       695 PS       0.124600
  11121 C2         29.2660  -18.2520    5.5270 c3       696 PS       0.031000
  11122 C1         30.2360  -18.8420    4.5370 c3       696 PS       0.000400
  11123 CG         30.2360  -20.3820    4.6570 ca       696 PS       0.250900
  11124 CD1        31.2560  -21.0920    5.4370 ca       696 PS      -0.270200
  11125 CE1        31.1160  -22.5320    5.5870 ca       696 PS      -0.050500
  11126 CZ         29.9860  -23.1820    4.9570 ca       696 PS      -0.188800
  11127 CE2        29.0160  -22.4520    4.1970 ca       696 PS      -0.050500
  11128 CD2        29.1460  -20.9920    4.0670 ca       696 PS      -0.270200
  11129 H21        29.0860  -18.9420    6.3570 hc       696 PS      -0.016200
  11130 H22        28.2760  -18.2520    5.0670 hc       696 PS      -0.016200
  11131 H1         31.2660  -18.5620    4.7970 hc       696 PS      -0.005300
  11132 HD1        32.0460  -20.6020    5.9870 ha       696 PS       0.124600
  11133 HE1        31.8960  -23.0420    6.1470 ha       696 PS       0.105800
  11134 HZ         29.9660  -24.2620    5.0770 ha       696 PS       0.124800
  11135 HE2        28.2160  -22.9920    3.6970 ha       696 PS       0.105800
  11136 HD2        28.4960  -20.3620    3.4670 ha       696 PS       0.124600
  11137 C2         29.9760  -18.2820    3.1670 c3       697 PS       0.031000
  11138 C1         31.0560  -18.5820    2.0770 c3       697 PS       0.000400
  11139 CG         31.1360  -20.0720    1.6970 ca       697 PS       0.250900
  11140 CD1        32.1460  -20.8920    2.1770 ca       697 PS      -0.270200
  11141 CE1        32.1260  -22.3120    1.9470 ca       697 PS      -0.050500
  11142 CZ         31.1260  -22.8720    1.1870 ca       697 PS      -0.188800
  11143 CE2        30.1560  -22.0120    0.5870 ca       697 PS      -0.050500
  11144 CD2        30.2060  -20.6420    0.8170 ca       697 PS      -0.270200
  11145 H21        28.9760  -18.5920    2.8570 hc       697 PS      -0.016200
  11146 H22        30.0160  -17.1920    3.2670 hc       697 PS      -0.016200
  11147 H1         32.0260  -18.2520    2.4870 hc       697 PS      -0.005300
  11148 HD1        32.8860  -20.5320    2.8870 ha       697 PS       0.124600
  11149 HE1        32.9360  -22.9220    2.3470 ha       697 PS       0.105800
  11150 HZ         30.9860  -23.9420    1.1870 ha       697 PS       0.124800
  11151 HE2        29.3760  -22.4520   -0.0230 ha       697 PS       0.105800
  11152 HD2        29.4560  -19.9220    0.4870 ha       697 PS       0.124600
  11153 C2         30.7160  -17.7420    0.7270 c3       698 PS       0.031000
  11154 C1         31.4060  -16.3220    0.7170 c3       698 PS       0.000400
  11155 CG         30.8160  -15.3520    1.7370 ca       698 PS       0.250900
  11156 CD1        31.4960  -15.0920    2.9370 ca       698 PS      -0.270200
  11157 CE1        30.9860  -14.1220    3.8470 ca       698 PS      -0.050500
  11158 CZ         29.7660  -13.4820    3.5870 ca       698 PS      -0.188800
  11159 CE2        29.0060  -13.8420    2.4870 ca       698 PS      -0.050500
  11160 CD2        29.5260  -14.7620    1.5370 ca       698 PS      -0.270200
  11161 H21        31.1460  -18.3020   -0.1030 hc       698 PS      -0.016200
  11162 H22        29.6560  -17.5820    0.5070 hc       698 PS      -0.016200
  11163 H1         32.4260  -16.5520    1.0370 hc       698 PS      -0.005300
  11164 HD1        32.4060  -15.6320    3.1570 ha       698 PS       0.124600
  11165 HE1        31.5160  -13.8820    4.7670 ha       698 PS       0.105800
  11166 HZ         29.4260  -12.7520    4.3270 ha       698 PS       0.124800
  11167 HE2        27.9760  -13.5120    2.3770 ha       698 PS       0.105800
  11168 HD2        28.8660  -14.9620    0.6970 ha       698 PS       0.124600
  11169 C2         31.4460  -15.6320   -0.7030 c3       699 PS       0.031000
  11170 C1         32.2060  -14.3520   -0.8130 c3       699 PS       0.000400
  11171 CG         33.7060  -14.5520   -0.6330 ca       699 PS       0.250900
  11172 CD1        34.4860  -15.4820   -1.4130 ca       699 PS      -0.270200
  11173 CE1        35.8860  -15.5320   -1.2930 ca       699 PS      -0.050500
  11174 CZ         36.5360  -14.7220   -0.3530 ca       699 PS      -0.188800
  11175 CE2        35.7660  -13.8320    0.4170 ca       699 PS      -0.050500
  11176 CD2        34.3660  -13.7220    0.2770 ca       699 PS      -0.270200
  11177 H21        31.6660  -16.3420   -1.5030 hc       699 PS      -0.016200
  11178 H22        30.4460  -15.3920   -1.0730 hc       699 PS      -0.016200
  11179 H1         31.7860  -13.7320   -0.0030 hc       699 PS      -0.005300
  11180 HD1        33.9660  -16.0920   -2.1430 ha       699 PS       0.124600
  11181 HE1        36.4560  -16.2720   -1.8530 ha       699 PS       0.105800
  11182 HZ         37.6160  -14.7620   -0.2830 ha       699 PS       0.124800
  11183 HE2        36.1660  -13.2620    1.2470 ha       699 PS       0.105800
  11184 HD2        33.8560  -13.0820    0.9870 ha       699 PS       0.124600
  11185 C2         31.8960  -13.6620   -2.1530 c3       700 PS       0.031000
  11186 C1         32.4760  -12.1820   -2.3630 c3       700 PS       0.000400
  11187 CG         34.0260  -12.0120   -2.5230 ca       700 PS       0.250900
  11188 CD1        34.5360  -10.9820   -1.7630 ca       700 PS      -0.270200
  11189 CE1        35.9260  -10.8020   -1.7330 ca       700 PS      -0.050500
  11190 CZ         36.7560  -11.6320   -2.5030 ca       700 PS      -0.188800
  11191 CE2        36.2360  -12.7020   -3.2130 ca       700 PS      -0.050500
  11192 CD2        34.8260  -12.8920   -3.1530 ca       700 PS      -0.270200
  11193 H21        32.2060  -14.2720   -3.0130 hc       700 PS      -0.016200
  11194 H22        30.8060  -13.5320   -2.1830 hc       700 PS      -0.016200
  11195 H1         32.1960  -11.5620   -1.5030 hc       700 PS      -0.005300
  11196 HD1        33.8460  -10.3820   -1.1930 ha       700 PS       0.124600
  11197 HE1        36.3060   -9.9520   -1.1730 ha       700 PS       0.105800
  11198 HZ         37.8160  -11.3820   -2.5830 ha       700 PS       0.124800
  11199 HE2        36.9160  -13.4120   -3.6830 ha       700 PS       0.105800
  11200 HD2        34.4660  -13.7120   -3.7630 ha       700 PS       0.124600
  11201 C2         31.8560  -11.4120   -3.6830 c3       701 PS       0.031000
  11202 C1         31.1360  -10.1220   -3.3730 c3       701 PS       0.000400
  11203 CG         29.9260  -10.5120   -2.5630 ca       701 PS       0.250900
  11204 CD1        29.9460  -10.2120   -1.1530 ca       701 PS      -0.270200
  11205 CE1        28.7560  -10.4720   -0.4030 ca       701 PS      -0.050500
  11206 CZ         27.6560  -11.0920   -0.9530 ca       701 PS      -0.188800
  11207 CE2        27.6660  -11.5220   -2.3030 ca       701 PS      -0.050500
  11208 CD2        28.8060  -11.2020   -3.1130 ca       701 PS      -0.270200
  11209 H21        32.6560  -11.2320   -4.4130 hc       701 PS      -0.016200
  11210 H22        31.1760  -12.1020   -4.1930 hc       701 PS      -0.016200
  11211 H1         31.7260   -9.4220   -2.7730 hc       701 PS      -0.005300
  11212 HD1        30.8360   -9.8120   -0.6930 ha       701 PS       0.124600
  11213 HE1        28.7560  -10.2320    0.6570 ha       701 PS       0.105800
  11214 HZ         26.7460  -11.4420   -0.4630 ha       701 PS       0.124800
  11215 HE2        26.9060  -12.1820   -2.6930 ha       701 PS       0.105800
  11216 HD2        28.9160  -11.4820   -4.1530 ha       701 PS       0.124600
  11217 C2         30.7660   -9.4320   -4.6730 c3       702 PS       0.031000
  11218 C1         31.8160   -8.4820   -5.3730 c3       702 PS       0.000400
  11219 CG         33.0760   -9.1620   -5.9430 ca       702 PS       0.250900
  11220 CD1        34.1160   -9.5020   -5.1630 ca       702 PS      -0.270200
  11221 CE1        35.1660  -10.3320   -5.5830 ca       702 PS      -0.050500
  11222 CZ         35.1760  -10.7620   -6.9230 ca       702 PS      -0.188800
  11223 CE2        34.0960  -10.3920   -7.7230 ca       702 PS      -0.050500
  11224 CD2        33.0460   -9.6120   -7.2530 ca       702 PS      -0.270200
  11225 H21        30.3360  -10.1320   -5.4030 hc       702 PS      -0.016200
  11226 H22        29.9760   -8.7920   -4.2630 hc       702 PS      -0.016200
  11227 H1         31.1860   -8.0520   -6.1630 hc       702 PS      -0.005300
  11228 HD1        34.0760   -9.3220   -4.0930 ha       702 PS       0.124600
  11229 HE1        35.8960  -10.6220   -4.8330 ha       702 PS       0.105800
  11230 HZ         35.9860  -11.3020   -7.4130 ha       702 PS       0.124800
  11231 HE2        34.0760  -10.7820   -8.7330 ha       702 PS       0.105800
  11232 HD2        32.1860   -9.4620   -7.8930 ha       702 PS       0.124600
  11233 C2         32.1160   -7.2720   -4.4330 c3       703 PS       0.031000
  11234 C1         32.7260   -6.0720   -5.1630 c3       703 PS       0.000400
  11235 CG         31.6860   -5.4620   -6.1130 ca       703 PS       0.250900
  11236 CD1        30.3360   -5.2120   -5.7230 ca       703 PS      -0.270200
  11237 CE1        29.4260   -4.6120   -6.5930 ca       703 PS      -0.050500
  11238 CZ         29.8360   -4.3820   -7.9230 ca       703 PS      -0.188800
  11239 CE2        31.1460   -4.7020   -8.3930 ca       703 PS      -0.050500
  11240 CD2        32.0360   -5.3020   -7.4730 ca       703 PS      -0.270200
  11241 H21        31.2860   -6.9720   -3.7930 hc       703 PS      -0.016200
  11242 H22        32.9060   -7.5520   -3.7230 hc       703 PS      -0.016200
  11243 H1         33.5360   -6.4820   -5.7830 hc       703 PS      -0.005300
  11244 HD1        30.0660   -5.4220   -4.6930 ha       703 PS       0.124600
  11245 HE1        28.4560   -4.2120   -6.2930 ha       703 PS       0.105800
  11246 HZ         29.1960   -3.8020   -8.5930 ha       703 PS       0.124800
  11247 HE2        31.3460   -4.5720   -9.4530 ha       703 PS       0.105800
  11248 HD2        33.0260   -5.5320   -7.8630 ha       703 PS       0.124600
  11249 C2         33.2260   -4.9320   -4.2330 c3       704 PS       0.031000
  11250 C1         34.2160   -3.9520   -4.8830 c3       704 PS       0.000400
  11251 CG         35.5060   -4.7020   -5.1930 ca       704 PS       0.250900
  11252 CD1        35.7860   -5.1820   -6.4830 ca       704 PS      -0.270200
  11253 CE1        37.0760   -5.6520   -6.8230 ca       704 PS      -0.050500
  11254 CZ         38.0360   -5.8520   -5.7730 ca       704 PS      -0.188800
  11255 CE2        37.7560   -5.4120   -4.4730 ca       704 PS      -0.050500
  11256 CD2        36.4860   -4.9020   -4.1730 ca       704 PS      -0.270200
  11257 H21        32.4160   -4.3520   -3.7730 hc       704 PS      -0.016200
  11258 H22        33.6860   -5.4820   -3.3930 hc       704 PS      -0.016200
  11259 H1         33.8360   -3.5220   -5.8130 hc       704 PS      -0.005300
  11260 HD1        35.0460   -5.1420   -7.2830 ha       704 PS       0.124600
  11261 HE1        37.3260   -6.0820   -7.7930 ha       704 PS       0.105800
  11262 HZ         38.9760   -6.3420   -5.9830 ha       704 PS       0.124800
  11263 HE2        38.4260   -5.6720   -3.6630 ha       704 PS       0.105800
  11264 HD2        36.3760   -4.6120   -3.1330 ha       704 PS       0.124600
  11265 C2         34.5360   -2.6720   -3.9830 c3       705 PS       0.031000
  11266 C1         34.8160   -1.4120   -4.8430 c3       705 PS       0.000400
  11267 CG         35.9860   -1.7220   -5.8230 ca       705 PS       0.250900
  11268 CD1        35.8660   -1.6020   -7.2430 ca       705 PS      -0.270200
  11269 CE1        36.9060   -1.9120   -8.1730 ca       705 PS      -0.050500
  11270 CZ         38.1260   -2.2020   -7.6330 ca       705 PS      -0.188800
  11271 CE2        38.3060   -2.2820   -6.3130 ca       705 PS      -0.050500
  11272 CD2        37.2860   -1.9720   -5.4130 ca       705 PS      -0.270200
  11273 H21        33.6460   -2.4920   -3.3630 hc       705 PS      -0.016200
  11274 H22        35.4260   -2.7420   -3.3530 hc       705 PS      -0.016200
  11275 H1         33.9060   -1.2020   -5.4230 hc       705 PS      -0.005300
  11276 HD1        34.9360   -1.2820   -7.7030 ha       705 PS       0.124600
  11277 HE1        36.7460   -1.9720   -9.2430 ha       705 PS       0.105800
  11278 HZ         38.9660   -2.3120   -8.3230 ha       705 PS       0.124800
  11279 HE2        39.2960   -2.5220   -5.9530 ha       705 PS       0.105800
  11280 HD2        37.4960   -2.0220   -4.3430 ha       705 PS       0.124600
  11281 C2         35.1360   -0.1220   -4.0030 c3       706 PS       0.031000
  11282 C1         35.7660    1.1480   -4.7730 c3       706 PS       0.000400
  11283 CG         37.2960    1.0280   -5.1330 ca       706 PS       0.250900
  11284 CD1        37.5860    1.2180   -6.5230 ca       706 PS      -0.270200
  11285 CE1        38.9460    0.9480   -6.8830 ca       706 PS      -0.050500
  11286 CZ         39.9260    0.6280   -5.9630 ca       706 PS      -0.188800
  11287 CE2        39.6560    0.6480   -4.6230 ca       706 PS      -0.050500
  11288 CD2        38.2960    0.8880   -4.2330 ca       706 PS      -0.270200
  11289 H21        34.1760    0.1780   -3.5630 hc       706 PS      -0.016200
  11290 H22        35.9260   -0.4020   -3.3030 hc       706 PS      -0.016200
  11291 H1         35.1060    1.3780   -5.6130 hc       706 PS      -0.005300
  11292 HD1        36.8660    1.4680   -7.2930 ha       706 PS       0.124600
  11293 HE1        39.2660    0.8480   -7.9130 ha       706 PS       0.105800
  11294 HZ         40.8860    0.3080   -6.3530 ha       706 PS       0.124800
  11295 HE2        40.5360    0.5280   -3.9930 ha       706 PS       0.105800
  11296 HD2        37.9860    0.7480   -3.1930 ha       706 PS       0.124600
  11297 C2         35.5760    2.4380   -3.8830 c3       707 PS       0.031000
  11298 C1         35.9060    3.7580   -4.6930 c3       707 PS       0.000400
  11299 CG         34.6660    4.1780   -5.5030 ca       707 PS       0.250900
  11300 CD1        34.7260    3.8980   -6.9230 ca       707 PS      -0.270200
  11301 CE1        33.6160    4.2680   -7.6830 ca       707 PS      -0.050500
  11302 CZ         32.5460    4.9280   -7.1930 ca       707 PS      -0.188800
  11303 CE2        32.5460    5.2480   -5.7830 ca       707 PS      -0.050500
  11304 CD2        33.6260    4.8780   -4.9630 ca       707 PS      -0.270200
  11305 H21        34.5460    2.5280   -3.5130 hc       707 PS      -0.016200
  11306 H22        36.2160    2.3880   -2.9930 hc       707 PS      -0.016200
  11307 H1         36.7260    3.6580   -5.4130 hc       707 PS      -0.005300
  11308 HD1        35.5660    3.4380   -7.4330 ha       707 PS       0.124600
  11309 HE1        33.5760    4.0180   -8.7330 ha       707 PS       0.105800
  11310 HZ         31.6860    5.1480   -7.8130 ha       707 PS       0.124800
  11311 HE2        31.7060    5.8080   -5.3730 ha       707 PS       0.105800
  11312 HD2        33.5260    5.0880   -3.9030 ha       707 PS       0.124600
  11313 C2         36.4960    4.8480   -3.8330 c3       708 PS       0.031000
  11314 C1         36.9260    6.0480   -4.7130 c3       708 PS       0.000400
  11315 CG         38.1360    5.6380   -5.6130 ca       708 PS       0.250900
  11316 CD1        37.9460    5.3880   -6.9730 ca       708 PS      -0.270200
  11317 CE1        39.0060    4.9880   -7.7530 ca       708 PS      -0.050500
  11318 CZ         40.2460    4.7780   -7.1830 ca       708 PS      -0.188800
  11319 CE2        40.4960    4.9980   -5.8330 ca       708 PS      -0.050500
  11320 CD2        39.4460    5.4680   -5.0130 ca       708 PS      -0.270200
  11321 H21        35.8660    5.1480   -2.9930 hc       708 PS      -0.016200
  11322 H22        37.3560    4.4680   -3.2730 hc       708 PS      -0.016200
  11323 H1         36.0660    6.2480   -5.3630 hc       708 PS      -0.005300
  11324 HD1        36.9460    5.5480   -7.3630 ha       708 PS       0.124600
  11325 HE1        38.8160    4.7680   -8.8030 ha       708 PS       0.105800
  11326 HZ         40.9960    4.3980   -7.8730 ha       708 PS       0.124800
  11327 HE2        41.4760    4.7980   -5.4130 ha       708 PS       0.105800
  11328 HD2        39.6360    5.5380   -3.9430 ha       708 PS       0.124600
  11329 C2         37.1160    7.3680   -3.8930 c3       709 PS       0.031000
  11330 C1         37.2760    8.6980   -4.7530 c3       709 PS       0.000400
  11331 CG         38.6260    8.8080   -5.4430 ca       709 PS       0.250900
  11332 CD1        39.8560    9.0080   -4.8330 ca       709 PS      -0.270200
  11333 CE1        41.0260    9.2580   -5.5830 ca       709 PS      -0.050500
  11334 CZ         41.0260    9.2580   -6.9530 ca       709 PS      -0.188800
  11335 CE2        39.8060    9.0980   -7.5730 ca       709 PS      -0.050500
  11336 CD2        38.6560    8.7680   -6.8330 ca       709 PS      -0.270200
  11337 H21        36.1860    7.5580   -3.3430 hc       709 PS      -0.016200
  11338 H22        37.9560    7.2880   -3.1930 hc       709 PS      -0.016200
  11339 H1         36.4660    8.6980   -5.5030 hc       709 PS      -0.005300
  11340 HD1        39.9160    9.1580   -3.7530 ha       709 PS       0.124600
  11341 HE1        41.8860    9.6080   -5.0330 ha       709 PS       0.105800
  11342 HZ         41.8660    9.7180   -7.4630 ha       709 PS       0.124800
  11343 HE2        39.8160    9.1980   -8.6530 ha       709 PS       0.105800
  11344 HD2        37.7460    8.6380   -7.4030 ha       709 PS       0.124600
  11345 C2         37.0060   10.0880   -3.9330 c3       710 PS       0.031000
  11346 C1         36.9060   11.3780   -4.8230 c3       710 PS       0.000400
  11347 CG         35.7360   11.2080   -5.7930 ca       710 PS       0.250900
  11348 CD1        35.8860   11.0680   -7.1330 ca       710 PS      -0.270200
  11349 CE1        34.8460   10.7980   -7.9830 ca       710 PS      -0.050500
  11350 CZ         33.6060   10.7080   -7.4230 ca       710 PS      -0.188800
  11351 CE2        33.3560   10.8380   -6.0630 ca       710 PS      -0.050500
  11352 CD2        34.4460   11.1280   -5.2330 ca       710 PS      -0.270200
  11353 H21        36.2160   10.0480   -3.1730 hc       710 PS      -0.016200
  11354 H22        37.9260   10.2280   -3.3430 hc       710 PS      -0.016200
  11355 H1         37.7960   11.2980   -5.4530 hc       710 PS      -0.005300
  11356 HD1        36.8860   11.0880   -7.5530 ha       710 PS       0.124600
  11357 HE1        35.0360   10.6580   -9.0430 ha       710 PS       0.105800
  11358 HZ         32.7860   10.5680   -8.1230 ha       710 PS       0.124800
  11359 HE2        32.3160   10.8780   -5.7530 ha       710 PS       0.105800
  11360 HD2        34.2460   11.3680   -4.1930 ha       710 PS       0.124600
  11361 C2         36.9460   12.6380   -3.9130 c3       711 PS       0.031000
  11362 C1         37.4860   13.7780   -4.7530 c3       711 PS       0.000400
  11363 CG         38.7760   13.4080   -5.3930 ca       711 PS       0.250900
  11364 CD1        38.9260   13.4880   -6.7730 ca       711 PS      -0.270200
  11365 CE1        40.2060   13.1280   -7.3230 ca       711 PS      -0.050500
  11366 CZ         41.2560   12.5380   -6.5430 ca       711 PS      -0.188800
  11367 CE2        41.0960   12.5280   -5.1530 ca       711 PS      -0.050500
  11368 CD2        39.8360   12.9580   -4.5930 ca       711 PS      -0.270200
  11369 H21        35.9760   12.9180   -3.4630 hc       711 PS      -0.016200
  11370 H22        37.5960   12.4380   -3.0630 hc       711 PS      -0.016200
  11371 H1         36.6860   13.8780   -5.4930 hc       711 PS      -0.005300
  11372 HD1        38.1060   13.8280   -7.4030 ha       711 PS       0.124600
  11373 HE1        40.3260   13.0680   -8.4030 ha       711 PS       0.105800
  11374 HZ         42.1960   12.1480   -6.9230 ha       711 PS       0.124800
  11375 HE2        41.8860   12.1180   -4.5230 ha       711 PS       0.105800
  11376 HD2        39.7060   12.8980   -3.5130 ha       711 PS       0.124600
  11377 C2         37.5460   15.1880   -3.9930 c3       712 PS       0.031000
  11378 C1         37.2960   16.5080   -4.8030 c3       712 PS       0.000400
  11379 CG         35.9260   16.5680   -5.3930 ca       712 PS       0.250900
  11380 CD1        35.7860   16.7180   -6.7630 ca       712 PS      -0.270200
  11381 CE1        34.5160   16.7880   -7.3130 ca       712 PS      -0.050500
  11382 CZ         33.3960   16.6880   -6.4130 ca       712 PS      -0.188800
  11383 CE2        33.5560   16.6080   -5.0030 ca       712 PS      -0.050500
  11384 CD2        34.8460   16.5280   -4.5030 ca       712 PS      -0.270200
  11385 H21        36.7660   15.1380   -3.2230 hc       712 PS      -0.016200
  11386 H22        38.5360   15.2380   -3.5330 hc       712 PS      -0.016200
  11387 H1         38.0660   16.4180   -5.5830 hc       712 PS      -0.005300
  11388 HD1        36.6760   16.6280   -7.3930 ha       712 PS       0.124600
  11389 HE1        34.3060   16.9580   -8.3630 ha       712 PS       0.105800
  11390 HZ         32.3860   16.6880   -6.8030 ha       712 PS       0.124800
  11391 HE2        32.7160   16.5180   -4.3230 ha       712 PS       0.105800
  11392 HD2        34.9760   16.4880   -3.4230 ha       712 PS       0.124600
  11393 C2        -42.3940   17.8380   -4.0130 c3       713 PS       0.031000
  11394 C1        -42.0740   19.0680   -4.9530 c3       713 PS       0.000400
  11395 CG        -40.7040   19.0380   -5.4530 ca       713 PS       0.250900
  11396 CD1       -40.4140   19.0180   -6.8730 ca       713 PS      -0.270200
  11397 CE1       -39.0740   18.9880   -7.3030 ca       713 PS      -0.050500
  11398 CZ        -38.0240   19.0780   -6.4030 ca       713 PS      -0.188800
  11399 CE2       -38.3040   19.0180   -5.0430 ca       713 PS      -0.050500
  11400 CD2       -39.6440   19.0880   -4.5830 ca       713 PS      -0.270200
  11401 H21       -43.2940   17.9980   -3.4030 hc       713 PS      -0.016200
  11402 H22       -41.6140   17.6280   -3.2730 hc       713 PS      -0.016200
  11403 H1        -42.8140   19.0180   -5.7530 hc       713 PS      -0.005300
  11404 HD1       -41.1940   19.0880   -7.6330 ha       713 PS       0.124600
  11405 HE1       -38.7840   18.8180   -8.3330 ha       713 PS       0.105800
  11406 HZ        -36.9840   18.9980   -6.7130 ha       713 PS       0.124800
  11407 HE2       -37.4940   18.9280   -4.3330 ha       713 PS       0.105800
  11408 HD2       -39.8340   19.0280   -3.5230 ha       713 PS       0.124600
  11409 C2         37.6460   20.4380   -4.0930 c3       714 PS       0.031000
  11410 C1         37.4460   21.7180   -4.9330 c3       714 PS       0.000400
  11411 CG         38.5860   22.0380   -5.8330 ca       714 PS       0.250900
  11412 CD1        39.8460   22.2180   -5.2330 ca       714 PS      -0.270200
  11413 CE1        40.9560   22.5780   -5.9430 ca       714 PS      -0.050500
  11414 CZ         40.8060   22.6380   -7.3530 ca       714 PS      -0.188800
  11415 CE2        39.5560   22.3480   -7.9730 ca       714 PS      -0.050500
  11416 CD2        38.4260   22.1580   -7.2130 ca       714 PS      -0.270200
  11417 H21        36.6960   20.2480   -3.5930 hc       714 PS      -0.016200
  11418 H22        38.4360   20.5380   -3.3430 hc       714 PS      -0.016200
  11419 H1         36.4860   21.5980   -5.4630 hc       714 PS      -0.005300
  11420 HD1        39.9560   22.0980   -4.1530 ha       714 PS       0.124600
  11421 HE1        41.8660   22.8180   -5.4030 ha       714 PS       0.105800
  11422 HZ         41.6660   22.8180   -7.9830 ha       714 PS       0.124800
  11423 HE2        39.4260   22.4480   -9.0530 ha       714 PS       0.105800
  11424 HD2        37.5060   21.9480   -7.7430 ha       714 PS       0.124600
  11425 C2         37.2260   22.8880   -3.9030 c3       715 PS       0.031000
  11426 C1         37.0660   24.3080   -4.5530 c3       715 PS       0.000400
  11427 CG         36.4360   24.2680   -5.9130 ca       715 PS       0.250900
  11428 CD1        35.1160   23.8280   -6.0030 ca       715 PS      -0.270200
  11429 CE1        34.3560   24.1980   -7.1130 ca       715 PS      -0.050500
  11430 CZ         35.0060   24.7580   -8.1930 ca       715 PS      -0.188800
  11431 CE2        36.3760   24.9780   -8.2130 ca       715 PS      -0.050500
  11432 CD2        37.0960   24.7180   -7.0830 ca       715 PS      -0.270200
  11433 H21        36.2960   22.6780   -3.3630 hc       715 PS      -0.016200
  11434 H22        38.0960   22.9880   -3.2430 hc       715 PS      -0.016200
  11435 H1         36.3060   24.8080   -3.9430 hc       715 PS      -0.005300
  11436 HD1        34.6660   23.2780   -5.1830 ha       715 PS       0.124600
  11437 HE1        33.3360   23.8480   -7.2430 ha       715 PS       0.105800
  11438 HZ         34.3760   25.0580   -9.0230 ha       715 PS       0.124800
  11439 HE2        36.9460   25.3080   -9.0830 ha       715 PS       0.105800
  11440 HD2        38.1160   25.0980   -7.0230 ha       715 PS       0.124600
  11441 C2        -41.6640   25.2680   -4.3630 c3       716 PS       0.031000
  11442 C1        -41.8040   26.7480   -4.7030 c3       716 PS       0.000400
  11443 CG        -40.5640   27.3280   -5.3930 ca       716 PS       0.250900
  11444 CD1       -40.5640   27.5080   -6.7830 ca       716 PS      -0.270200
  11445 CE1       -39.3940   27.9080   -7.4530 ca       716 PS      -0.050500
  11446 CZ        -38.2140   28.0780   -6.7930 ca       716 PS      -0.188800
  11447 CE2       -38.1840   27.8280   -5.4430 ca       716 PS      -0.050500
  11448 CD2       -39.3040   27.5180   -4.6930 ca       716 PS      -0.270200
  11449 H21       -41.5140   25.2580   -3.2830 hc       716 PS      -0.016200
  11450 H22       -40.7840   24.8180   -4.8330 hc       716 PS      -0.016200
  11451 H1        -42.6440   26.8280   -5.4030 hc       716 PS      -0.005300
  11452 HD1       -41.4540   27.2480   -7.3530 ha       716 PS       0.124600
  11453 HE1       -39.3340   27.8880   -8.5430 ha       716 PS       0.105800
  11454 HZ        -37.2740   28.2880   -7.3030 ha       716 PS       0.124800
  11455 HE2       -37.2040   27.8280   -4.9630 ha       716 PS       0.105800
  11456 HD2       -39.2440   27.4280   -3.6130 ha       716 PS       0.124600
  11457 C2         37.6460   27.7180   -3.5530 c3       717 PS       0.031000
  11458 C1         37.4560   29.2280   -3.9830 c3       717 PS       0.000400
  11459 CG         36.6660   29.3680   -5.3130 ca       717 PS       0.250900
  11460 CD1        35.2660   29.0680   -5.4230 ca       717 PS      -0.270200
  11461 CE1        34.4960   29.3280   -6.5630 ca       717 PS      -0.050500
  11462 CZ         35.0460   29.9080   -7.6930 ca       717 PS      -0.188800
  11463 CE2        36.4460   30.1480   -7.5930 ca       717 PS      -0.050500
  11464 CD2        37.2960   29.8480   -6.4730 ca       717 PS      -0.270200
  11465 H21        36.7160   27.3280   -3.1130 hc       717 PS      -0.016200
  11466 H22        38.3860   27.7080   -2.7430 hc       717 PS      -0.016200
  11467 H1         38.4360   29.6880   -4.1230 hc       717 PS      -0.005300
  11468 HD1        34.8260   28.6380   -4.5330 ha       717 PS       0.124600
  11469 HE1        33.4160   29.1980   -6.5430 ha       717 PS       0.105800
  11470 HZ         34.3860   30.1580   -8.5230 ha       717 PS       0.124800
  11471 HE2        36.9360   30.5680   -8.4630 ha       717 PS       0.105800
  11472 HD2        38.3660   30.0280   -6.5330 ha       717 PS       0.124600
  11473 C2         36.9060   30.1580   -2.8530 c3       718 PS       0.031000
  11474 C1         37.0460   31.6680   -3.1330 c3       718 PS       0.000400
  11475 CG         35.9160   32.0580   -4.0830 ca       718 PS       0.250900
  11476 CD1        36.1760   32.5780   -5.3830 ca       718 PS      -0.270200
  11477 CE1        35.1160   32.9580   -6.2730 ca       718 PS      -0.050500
  11478 CZ         33.7560   32.8280   -5.8730 ca       718 PS      -0.188800
  11479 CE2        33.5060   32.3880   -4.5930 ca       718 PS      -0.050500
  11480 CD2        34.5560   31.9780   -3.7430 ca       718 PS      -0.270200
  11481 H21        35.9460   29.9380   -2.4030 hc       718 PS      -0.016200
  11482 H22        37.5760   29.9680   -2.0030 hc       718 PS      -0.016200
  11483 H1         37.9760   31.9480   -3.6630 hc       718 PS      -0.005300
  11484 HD1        37.1960   32.7980   -5.7030 ha       718 PS       0.124600
  11485 HE1        35.4460   33.3980   -7.2130 ha       718 PS       0.105800
  11486 HZ         32.9460   33.0880   -6.5530 ha       718 PS       0.124800
  11487 HE2        32.5160   32.2780   -4.1630 ha       718 PS       0.105800
  11488 HD2        34.2560   31.7280   -2.7330 ha       718 PS       0.124600
  11489 C2         36.9760   32.5280   -1.8330 c3       719 PS       0.031000
  11490 C1         37.0460   34.0380   -2.1630 c3       719 PS       0.000400
  11491 CG         36.4460   34.7780   -0.9430 ca       719 PS       0.250900
  11492 CD1        35.0860   35.2080   -1.0830 ca       719 PS      -0.270200
  11493 CE1        34.4960   35.9980   -0.1330 ca       719 PS      -0.050500
  11494 CZ         35.2360   36.2780    1.0270 ca       719 PS      -0.188800
  11495 CE2        36.5860   35.9480    1.1770 ca       719 PS      -0.050500
  11496 CD2        37.2060   35.1580    0.1670 ca       719 PS      -0.270200
  11497 H21        36.0160   32.3780   -1.3330 hc       719 PS      -0.016200
  11498 H22        37.8560   32.2480   -1.2430 hc       719 PS      -0.016200
  11499 H1         36.4260   34.2980   -3.0330 hc       719 PS      -0.005300
  11500 HD1        34.5260   34.8380   -1.9330 ha       719 PS       0.124600
  11501 HE1        33.4360   36.2380   -0.1830 ha       719 PS       0.105800
  11502 HZ         34.7860   36.8480    1.8370 ha       719 PS       0.124800
  11503 HE2        37.1160   36.2180    2.0870 ha       719 PS       0.105800
  11504 HD2        38.1960   34.7180    0.2470 ha       719 PS       0.124600
  11505 C2         38.4760   34.5880   -2.5730 c3       720 PS       0.031000
  11506 C1         38.4260   36.0980   -3.0630 c3       720 PS       0.000400
  11507 CG         37.7160   36.2580   -4.4430 ca       720 PS       0.250900
  11508 CD1        36.3060   36.5380   -4.4530 ca       720 PS      -0.270200
  11509 CE1        35.5860   36.7180   -5.6530 ca       720 PS      -0.050500
  11510 CZ         36.2060   36.4580   -6.8530 ca       720 PS      -0.188800
  11511 CE2        37.5360   36.0180   -6.8830 ca       720 PS      -0.050500
  11512 CD2        38.3760   35.9780   -5.6730 ca       720 PS      -0.270200
  11513 H21        39.2460   34.5380   -1.7830 hc       720 PS      -0.016200
  11514 H22        38.8860   33.9980   -3.3930 hc       720 PS      -0.016200
  11515 H1         38.1560   36.8180   -2.2830 hc       720 PS      -0.005300
  11516 HD1        35.8860   36.8780   -3.5130 ha       720 PS       0.124600
  11517 HE1        34.5960   37.1680   -5.5630 ha       720 PS       0.105800
  11518 HZ         35.7160   36.4280   -7.8230 ha       720 PS       0.124800
  11519 HE2        37.9660   35.5780   -7.7730 ha       720 PS       0.105800
  11520 HD2        39.3960   35.5980   -5.7030 ha       720 PS       0.124600
@<TRIPOS>BOND
    1     1     2 1
    2     2     3 1
    3     2    17 1
    4     3     8 1
    5     3     4 1
    6     4     5 1
    7     5     6 1
    8     6     7 1
    9     7     8 1
   10    17    18 1
   11    18    19 1
   12    18    33 1
   13    19    24 1
   14    19    20 1
   15    20    21 1
   16    21    22 1
   17    22    23 1
   18    23    24 1
   19    33    34 1
   20    34    35 1
   21    34    49 1
   22    35    40 1
   23    35    36 1
   24    36    37 1
   25    37    38 1
   26    38    39 1
   27    39    40 1
   28    49    50 1
   29    50    51 1
   30    50    65 1
   31    51    56 1
   32    51    52 1
   33    52    53 1
   34    53    54 1
   35    54    55 1
   36    55    56 1
   37    65    66 1
   38    66    67 1
   39    66    81 1
   40    67    72 1
   41    67    68 1
   42    68    69 1
   43    69    70 1
   44    70    71 1
   45    71    72 1
   46    81    82 1
   47    82    83 1
   48    82    97 1
   49    83    88 1
   50    83    84 1
   51    84    85 1
   52    85    86 1
   53    86    87 1
   54    87    88 1
   55    97    98 1
   56    98    99 1
   57    98   113 1
   58    99   104 1
   59    99   100 1
   60   100   101 1
   61   101   102 1
   62   102   103 1
   63   103   104 1
   64   113   114 1
   65   114   115 1
   66   114   129 1
   67   115   120 1
   68   115   116 1
   69   116   117 1
   70   117   118 1
   71   118   119 1
   72   119   120 1
   73   129   130 1
   74   130   131 1
   75   130   145 1
   76   131   136 1
   77   131   132 1
   78   132   133 1
   79   133   134 1
   80   134   135 1
   81   135   136 1
   82   145   146 1
   83   146   147 1
   84   146   161 1
   85   147   152 1
   86   147   148 1
   87   148   149 1
   88   149   150 1
   89   150   151 1
   90   151   152 1
   91   161   162 1
   92   162   163 1
   93   162   177 1
   94   163   168 1
   95   163   164 1
   96   164   165 1
   97   165   166 1
   98   166   167 1
   99   167   168 1
  100   177   178 1
  101   178   179 1
  102   178   193 1
  103   179   184 1
  104   179   180 1
  105   180   181 1
  106   181   182 1
  107   182   183 1
  108   183   184 1
  109   193   194 1
  110   194   195 1
  111   194   209 1
  112   195   200 1
  113   195   196 1
  114   196   197 1
  115   197   198 1
  116   198   199 1
  117   199   200 1
  118   209   210 1
  119   210   211 1
  120   210   225 1
  121   211   216 1
  122   211   212 1
  123   212   213 1
  124   213   214 1
  125   214   215 1
  126   215   216 1
  127   225   226 1
  128   226   227 1
  129   226   241 1
  130   227   232 1
  131   227   228 1
  132   228   229 1
  133   229   230 1
  134   230   231 1
  135   231   232 1
  136   241   242 1
  137   242   243 1
  138   242   257 1
  139   243   248 1
  140   243   244 1
  141   244   245 1
  142   245   246 1
  143   246   247 1
  144   247   248 1
  145   257   258 1
  146   258   259 1
  147   258   273 1
  148   259   264 1
  149   259   260 1
  150   260   261 1
  151   261   262 1
  152   262   263 1
  153   263   264 1
  154   273   274 1
  155   274   275 1
  156   274   289 1
  157   275   280 1
  158   275   276 1
  159   276   277 1
  160   277   278 1
  161   278   279 1
  162   279   280 1
  163   289   290 1
  164   290   291 1
  165   290   305 1
  166   291   296 1
  167   291   292 1
  168   292   293 1
  169   293   294 1
  170   294   295 1
  171   295   296 1
  172   305   306 1
  173   306   307 1
  174   306   321 1
  175   307   312 1
  176   307   308 1
  177   308   309 1
  178   309   310 1
  179   310   311 1
  180   311   312 1
  181   321   322 1
  182   322   323 1
  183   322   337 1
  184   323   328 1
  185   323   324 1
  186   324   325 1
  187   325   326 1
  188   326   327 1
  189   327   328 1
  190   337   338 1
  191   338   339 1
  192   338   353 1
  193   339   344 1
  194   339   340 1
  195   340   341 1
  196   341   342 1
  197   342   343 1
  198   343   344 1
  199   353   354 1
  200   354   355 1
  201   354   369 1
  202   355   360 1
  203   355   356 1
  204   356   357 1
  205   357   358 1
  206   358   359 1
  207   359   360 1
  208   369   370 1
  209   370   371 1
  210   370   385 1
  211   371   376 1
  212   371   372 1
  213   372   373 1
  214   373   374 1
  215   374   375 1
  216   375   376 1
  217   385   386 1
  218   386   387 1
  219   386   401 1
  220   387   392 1
  221   387   388 1
  222   388   389 1
  223   389   390 1
  224   390   391 1
  225   391   392 1
  226   401   402 1
  227   402   403 1
  228   402   417 1
  229   403   408 1
  230   403   404 1
  231   404   405 1
  232   405   406 1
  233   406   407 1
  234   407   408 1
  235   417   418 1
  236   418   419 1
  237   418   433 1
  238   419   424 1
  239   419   420 1
  240   420   421 1
  241   421   422 1
  242   422   423 1
  243   423   424 1
  244   433   434 1
  245   434   435 1
  246   434   449 1
  247   435   440 1
  248   435   436 1
  249   436   437 1
  250   437   438 1
  251   438   439 1
  252   439   440 1
  253   449   450 1
  254   450   451 1
  255   450   465 1
  256   451   456 1
  257   451   452 1
  258   452   453 1
  259   453   454 1
  260   454   455 1
  261   455   456 1
  262   465   466 1
  263   466   467 1
  264   467   472 1
  265   467   468 1
  266   468   469 1
  267   469   470 1
  268   470   471 1
  269   471   472 1
  270   481   482 1
  271   482   483 1
  272   482   497 1
  273   483   488 1
  274   483   484 1
  275   484   485 1
  276   485   486 1
  277   486   487 1
  278   487   488 1
  279   497   498 1
  280   498   499 1
  281   498   513 1
  282   499   504 1
  283   499   500 1
  284   500   501 1
  285   501   502 1
  286   502   503 1
  287   503   504 1
  288   513   514 1
  289   514   515 1
  290   514   529 1
  291   515   520 1
  292   515   516 1
  293   516   517 1
  294   517   518 1
  295   518   519 1
  296   519   520 1
  297   529   530 1
  298   530   531 1
  299   530   545 1
  300   531   536 1
  301   531   532 1
  302   532   533 1
  303   533   534 1
  304   534   535 1
  305   535   536 1
  306   545   546 1
  307   546   547 1
  308   546   561 1
  309   547   552 1
  310   547   548 1
  311   548   549 1
  312   549   550 1
  313   550   551 1
  314   551   552 1
  315   561   562 1
  316   562   563 1
  317   562   577 1
  318   563   568 1
  319   563   564 1
  320   564   565 1
  321   565   566 1
  322   566   567 1
  323   567   568 1
  324   577   578 1
  325   578   579 1
  326   578   593 1
  327   579   584 1
  328   579   580 1
  329   580   581 1
  330   581   582 1
  331   582   583 1
  332   583   584 1
  333   593   594 1
  334   594   595 1
  335   594   609 1
  336   595   600 1
  337   595   596 1
  338   596   597 1
  339   597   598 1
  340   598   599 1
  341   599   600 1
  342   609   610 1
  343   610   611 1
  344   610   625 1
  345   611   616 1
  346   611   612 1
  347   612   613 1
  348   613   614 1
  349   614   615 1
  350   615   616 1
  351   625   626 1
  352   626   627 1
  353   626   641 1
  354   627   632 1
  355   627   628 1
  356   628   629 1
  357   629   630 1
  358   630   631 1
  359   631   632 1
  360   641   642 1
  361   642   643 1
  362   642   657 1
  363   643   648 1
  364   643   644 1
  365   644   645 1
  366   645   646 1
  367   646   647 1
  368   647   648 1
  369   657   658 1
  370   658   659 1
  371   658   673 1
  372   659   664 1
  373   659   660 1
  374   660   661 1
  375   661   662 1
  376   662   663 1
  377   663   664 1
  378   673   674 1
  379   674   675 1
  380   674   689 1
  381   675   680 1
  382   675   676 1
  383   676   677 1
  384   677   678 1
  385   678   679 1
  386   679   680 1
  387   689   690 1
  388   690   691 1
  389   690   705 1
  390   691   696 1
  391   691   692 1
  392   692   693 1
  393   693   694 1
  394   694   695 1
  395   695   696 1
  396   705   706 1
  397   706   707 1
  398   706   721 1
  399   707   712 1
  400   707   708 1
  401   708   709 1
  402   709   710 1
  403   710   711 1
  404   711   712 1
  405   721   722 1
  406   722   723 1
  407   722   737 1
  408   723   728 1
  409   723   724 1
  410   724   725 1
  411   725   726 1
  412   726   727 1
  413   727   728 1
  414   737   738 1
  415   738   739 1
  416   738   753 1
  417   739   744 1
  418   739   740 1
  419   740   741 1
  420   741   742 1
  421   742   743 1
  422   743   744 1
  423   753   754 1
  424   754   755 1
  425   754   769 1
  426   755   760 1
  427   755   756 1
  428   756   757 1
  429   757   758 1
  430   758   759 1
  431   759   760 1
  432   769   770 1
  433   770   771 1
  434   770   785 1
  435   771   776 1
  436   771   772 1
  437   772   773 1
  438   773   774 1
  439   774   775 1
  440   775   776 1
  441   785   786 1
  442   786   787 1
  443   786   801 1
  444   787   792 1
  445   787   788 1
  446   788   789 1
  447   789   790 1
  448   790   791 1
  449   791   792 1
  450   801   802 1
  451   802   803 1
  452   802   817 1
  453   803   808 1
  454   803   804 1
  455   804   805 1
  456   805   806 1
  457   806   807 1
  458   807   808 1
  459   817   818 1
  460   818   819 1
  461   818   833 1
  462   819   824 1
  463   819   820 1
  464   820   821 1
  465   821   822 1
  466   822   823 1
  467   823   824 1
  468   833   834 1
  469   834   835 1
  470   834   849 1
  471   835   840 1
  472   835   836 1
  473   836   837 1
  474   837   838 1
  475   838   839 1
  476   839   840 1
  477   849   850 1
  478   850   851 1
  479   850   865 1
  480   851   856 1
  481   851   852 1
  482   852   853 1
  483   853   854 1
  484   854   855 1
  485   855   856 1
  486   865   866 1
  487   866   867 1
  488   866   881 1
  489   867   872 1
  490   867   868 1
  491   868   869 1
  492   869   870 1
  493   870   871 1
  494   871   872 1
  495   881   882 1
  496   882   883 1
  497   882   897 1
  498   883   888 1
  499   883   884 1
  500   884   885 1
  501   885   886 1
  502   886   887 1
  503   887   888 1
  504   897   898 1
  505   898   899 1
  506   898   913 1
  507   899   904 1
  508   899   900 1
  509   900   901 1
  510   901   902 1
  511   902   903 1
  512   903   904 1
  513   913   914 1
  514   914   915 1
  515   914   929 1
  516   915   920 1
  517   915   916 1
  518   916   917 1
  519   917   918 1
  520   918   919 1
  521   919   920 1
  522   929   930 1
  523   930   931 1
  524   930   945 1
  525   931   936 1
  526   931   932 1
  527   932   933 1
  528   933   934 1
  529   934   935 1
  530   935   936 1
  531   945   946 1
  532   946   947 1
  533   947   952 1
  534   947   948 1
  535   948   949 1
  536   949   950 1
  537   950   951 1
  538   951   952 1
  539   961   962 1
  540   962   963 1
  541   962   977 1
  542   963   968 1
  543   963   964 1
  544   964   965 1
  545   965   966 1
  546   966   967 1
  547   967   968 1
  548   977   978 1
  549   978   979 1
  550   978   993 1
  551   979   984 1
  552   979   980 1
  553   980   981 1
  554   981   982 1
  555   982   983 1
  556   983   984 1
  557   993   994 1
  558   994   995 1
  559   994  1009 1
  560   995  1000 1
  561   995   996 1
  562   996   997 1
  563   997   998 1
  564   998   999 1
  565   999  1000 1
  566  1009  1010 1
  567  1010  1011 1
  568  1010  1025 1
  569  1011  1016 1
  570  1011  1012 1
  571  1012  1013 1
  572  1013  1014 1
  573  1014  1015 1
  574  1015  1016 1
  575  1025  1026 1
  576  1026  1027 1
  577  1026  1041 1
  578  1027  1032 1
  579  1027  1028 1
  580  1028  1029 1
  581  1029  1030 1
  582  1030  1031 1
  583  1031  1032 1
  584  1041  1042 1
  585  1042  1043 1
  586  1042  1057 1
  587  1043  1048 1
  588  1043  1044 1
  589  1044  1045 1
  590  1045  1046 1
  591  1046  1047 1
  592  1047  1048 1
  593  1057  1058 1
  594  1058  1059 1
  595  1058  1073 1
  596  1059  1064 1
  597  1059  1060 1
  598  1060  1061 1
  599  1061  1062 1
  600  1062  1063 1
  601  1063  1064 1
  602  1073  1074 1
  603  1074  1075 1
  604  1074  1089 1
  605  1075  1080 1
  606  1075  1076 1
  607  1076  1077 1
  608  1077  1078 1
  609  1078  1079 1
  610  1079  1080 1
  611  1089  1090 1
  612  1090  1091 1
  613  1090  1105 1
  614  1091  1096 1
  615  1091  1092 1
  616  1092  1093 1
  617  1093  1094 1
  618  1094  1095 1
  619  1095  1096 1
  620  1105  1106 1
  621  1106  1107 1
  622  1106  1121 1
  623  1107  1112 1
  624  1107  1108 1
  625  1108  1109 1
  626  1109  1110 1
  627  1110  1111 1
  628  1111  1112 1
  629  1121  1122 1
  630  1122  1123 1
  631  1122  1137 1
  632  1123  1128 1
  633  1123  1124 1
  634  1124  1125 1
  635  1125  1126 1
  636  1126  1127 1
  637  1127  1128 1
  638  1137  1138 1
  639  1138  1139 1
  640  1138  1153 1
  641  1139  1144 1
  642  1139  1140 1
  643  1140  1141 1
  644  1141  1142 1
  645  1142  1143 1
  646  1143  1144 1
  647  1153  1154 1
  648  1154  1155 1
  649  1154  1169 1
  650  1155  1160 1
  651  1155  1156 1
  652  1156  1157 1
  653  1157  1158 1
  654  1158  1159 1
  655  1159  1160 1
  656  1169  1170 1
  657  1170  1171 1
  658  1170  1185 1
  659  1171  1176 1
  660  1171  1172 1
  661  1172  1173 1
  662  1173  1174 1
  663  1174  1175 1
  664  1175  1176 1
  665  1185  1186 1
  666  1186  1187 1
  667  1186  1201 1
  668  1187  1192 1
  669  1187  1188 1
  670  1188  1189 1
  671  1189  1190 1
  672  1190  1191 1
  673  1191  1192 1
  674  1201  1202 1
  675  1202  1203 1
  676  1202  1217 1
  677  1203  1208 1
  678  1203  1204 1
  679  1204  1205 1
  680  1205  1206 1
  681  1206  1207 1
  682  1207  1208 1
  683  1217  1218 1
  684  1218  1219 1
  685  1218  1233 1
  686  1219  1224 1
  687  1219  1220 1
  688  1220  1221 1
  689  1221  1222 1
  690  1222  1223 1
  691  1223  1224 1
  692  1233  1234 1
  693  1234  1235 1
  694  1234  1249 1
  695  1235  1240 1
  696  1235  1236 1
  697  1236  1237 1
  698  1237  1238 1
  699  1238  1239 1
  700  1239  1240 1
  701  1249  1250 1
  702  1250  1251 1
  703  1250  1265 1
  704  1251  1256 1
  705  1251  1252 1
  706  1252  1253 1
  707  1253  1254 1
  708  1254  1255 1
  709  1255  1256 1
  710  1265  1266 1
  711  1266  1267 1
  712  1266  1281 1
  713  1267  1272 1
  714  1267  1268 1
  715  1268  1269 1
  716  1269  1270 1
  717  1270  1271 1
  718  1271  1272 1
  719  1281  1282 1
  720  1282  1283 1
  721  1282  1297 1
  722  1283  1288 1
  723  1283  1284 1
  724  1284  1285 1
  725  1285  1286 1
  726  1286  1287 1
  727  1287  1288 1
  728  1297  1298 1
  729  1298  1299 1
  730  1298  1313 1
  731  1299  1304 1
  732  1299  1300 1
  733  1300  1301 1
  734  1301  1302 1
  735  1302  1303 1
  736  1303  1304 1
  737  1313  1314 1
  738  1314  1315 1
  739  1314  1329 1
  740  1315  1320 1
  741  1315  1316 1
  742  1316  1317 1
  743  1317  1318 1
  744  1318  1319 1
  745  1319  1320 1
  746  1329  1330 1
  747  1330  1331 1
  748  1330  1345 1
  749  1331  1336 1
  750  1331  1332 1
  751  1332  1333 1
  752  1333  1334 1
  753  1334  1335 1
  754  1335  1336 1
  755  1345  1346 1
  756  1346  1347 1
  757  1346  1361 1
  758  1347  1352 1
  759  1347  1348 1
  760  1348  1349 1
  761  1349  1350 1
  762  1350  1351 1
  763  1351  1352 1
  764  1361  1362 1
  765  1362  1363 1
  766  1362  1377 1
  767  1363  1368 1
  768  1363  1364 1
  769  1364  1365 1
  770  1365  1366 1
  771  1366  1367 1
  772  1367  1368 1
  773  1377  1378 1
  774  1378  1379 1
  775  1378  1393 1
  776  1379  1384 1
  777  1379  1380 1
  778  1380  1381 1
  779  1381  1382 1
  780  1382  1383 1
  781  1383  1384 1
  782  1393  1394 1
  783  1394  1395 1
  784  1394  1409 1
  785  1395  1400 1
  786  1395  1396 1
  787  1396  1397 1
  788  1397  1398 1
  789  1398  1399 1
  790  1399  1400 1
  791  1409  1410 1
  792  1410  1411 1
  793  1410  1425 1
  794  1411  1416 1
  795  1411  1412 1
  796  1412  1413 1
  797  1413  1414 1
  798  1414  1415 1
  799  1415  1416 1
  800  1425  1426 1
  801  1426  1427 1
  802  1427  1432 1
  803  1427  1428 1
  804  1428  1429 1
  805  1429  1430 1
  806  1430  1431 1
  807  1431  1432 1
  808  1441  1442 1
  809  1442  1443 1
  810  1442  1457 1
  811  1443  1448 1
  812  1443  1444 1
  813  1444  1445 1
  814  1445  1446 1
  815  1446  1447 1
  816  1447  1448 1
  817  1457  1458 1
  818  1458  1459 1
  819  1458  1473 1
  820  1459  1464 1
  821  1459  1460 1
  822  1460  1461 1
  823  1461  1462 1
  824  1462  1463 1
  825  1463  1464 1
  826  1473  1474 1
  827  1474  1475 1
  828  1474  1489 1
  829  1475  1480 1
  830  1475  1476 1
  831  1476  1477 1
  832  1477  1478 1
  833  1478  1479 1
  834  1479  1480 1
  835  1489  1490 1
  836  1490  1491 1
  837  1490  1505 1
  838  1491  1496 1
  839  1491  1492 1
  840  1492  1493 1
  841  1493  1494 1
  842  1494  1495 1
  843  1495  1496 1
  844  1505  1506 1
  845  1506  1507 1
  846  1506  1521 1
  847  1507  1512 1
  848  1507  1508 1
  849  1508  1509 1
  850  1509  1510 1
  851  1510  1511 1
  852  1511  1512 1
  853  1521  1522 1
  854  1522  1523 1
  855  1522  1537 1
  856  1523  1528 1
  857  1523  1524 1
  858  1524  1525 1
  859  1525  1526 1
  860  1526  1527 1
  861  1527  1528 1
  862  1537  1538 1
  863  1538  1539 1
  864  1538  1553 1
  865  1539  1544 1
  866  1539  1540 1
  867  1540  1541 1
  868  1541  1542 1
  869  1542  1543 1
  870  1543  1544 1
  871  1553  1554 1
  872  1554  1555 1
  873  1554  1569 1
  874  1555  1560 1
  875  1555  1556 1
  876  1556  1557 1
  877  1557  1558 1
  878  1558  1559 1
  879  1559  1560 1
  880  1569  1570 1
  881  1570  1571 1
  882  1570  1585 1
  883  1571  1576 1
  884  1571  1572 1
  885  1572  1573 1
  886  1573  1574 1
  887  1574  1575 1
  888  1575  1576 1
  889  1585  1586 1
  890  1586  1587 1
  891  1586  1601 1
  892  1587  1592 1
  893  1587  1588 1
  894  1588  1589 1
  895  1589  1590 1
  896  1590  1591 1
  897  1591  1592 1
  898  1601  1602 1
  899  1602  1603 1
  900  1602  1617 1
  901  1603  1608 1
  902  1603  1604 1
  903  1604  1605 1
  904  1605  1606 1
  905  1606  1607 1
  906  1607  1608 1
  907  1617  1618 1
  908  1618  1619 1
  909  1618  1633 1
  910  1619  1624 1
  911  1619  1620 1
  912  1620  1621 1
  913  1621  1622 1
  914  1622  1623 1
  915  1623  1624 1
  916  1633  1634 1
  917  1634  1635 1
  918  1634  1649 1
  919  1635  1640 1
  920  1635  1636 1
  921  1636  1637 1
  922  1637  1638 1
  923  1638  1639 1
  924  1639  1640 1
  925  1649  1650 1
  926  1650  1651 1
  927  1650  1665 1
  928  1651  1656 1
  929  1651  1652 1
  930  1652  1653 1
  931  1653  1654 1
  932  1654  1655 1
  933  1655  1656 1
  934  1665  1666 1
  935  1666  1667 1
  936  1666  1681 1
  937  1667  1672 1
  938  1667  1668 1
  939  1668  1669 1
  940  1669  1670 1
  941  1670  1671 1
  942  1671  1672 1
  943  1681  1682 1
  944  1682  1683 1
  945  1682  1697 1
  946  1683  1688 1
  947  1683  1684 1
  948  1684  1685 1
  949  1685  1686 1
  950  1686  1687 1
  951  1687  1688 1
  952  1697  1698 1
  953  1698  1699 1
  954  1698  1713 1
  955  1699  1704 1
  956  1699  1700 1
  957  1700  1701 1
  958  1701  1702 1
  959  1702  1703 1
  960  1703  1704 1
  961  1713  1714 1
  962  1714  1715 1
  963  1714  1729 1
  964  1715  1720 1
  965  1715  1716 1
  966  1716  1717 1
  967  1717  1718 1
  968  1718  1719 1
  969  1719  1720 1
  970  1729  1730 1
  971  1730  1731 1
  972  1730  1745 1
  973  1731  1736 1
  974  1731  1732 1
  975  1732  1733 1
  976  1733  1734 1
  977  1734  1735 1
  978  1735  1736 1
  979  1745  1746 1
  980  1746  1747 1
  981  1746  1761 1
  982  1747  1752 1
  983  1747  1748 1
  984  1748  1749 1
  985  1749  1750 1
  986  1750  1751 1
  987  1751  1752 1
  988  1761  1762 1
  989  1762  1763 1
  990  1762  1777 1
  991  1763  1768 1
  992  1763  1764 1
  993  1764  1765 1
  994  1765  1766 1
  995  1766  1767 1
  996  1767  1768 1
  997  1777  1778 1
  998  1778  1779 1
  999  1778  1793 1
 1000  1779  1784 1
 1001  1779  1780 1
 1002  1780  1781 1
 1003  1781  1782 1
 1004  1782  1783 1
 1005  1783  1784 1
 1006  1793  1794 1
 1007  1794  1795 1
 1008  1794  1809 1
 1009  1795  1800 1
 1010  1795  1796 1
 1011  1796  1797 1
 1012  1797  1798 1
 1013  1798  1799 1
 1014  1799  1800 1
 1015  1809  1810 1
 1016  1810  1811 1
 1017  1810  1825 1
 1018  1811  1816 1
 1019  1811  1812 1
 1020  1812  1813 1
 1021  1813  1814 1
 1022  1814  1815 1
 1023  1815  1816 1
 1024  1825  1826 1
 1025  1826  1827 1
 1026  1826  1841 1
 1027  1827  1832 1
 1028  1827  1828 1
 1029  1828  1829 1
 1030  1829  1830 1
 1031  1830  1831 1
 1032  1831  1832 1
 1033  1841  1842 1
 1034  1842  1843 1
 1035  1842  1857 1
 1036  1843  1848 1
 1037  1843  1844 1
 1038  1844  1845 1
 1039  1845  1846 1
 1040  1846  1847 1
 1041  1847  1848 1
 1042  1857  1858 1
 1043  1858  1859 1
 1044  1858  1873 1
 1045  1859  1864 1
 1046  1859  1860 1
 1047  1860  1861 1
 1048  1861  1862 1
 1049  1862  1863 1
 1050  1863  1864 1
 1051  1873  1874 1
 1052  1874  1875 1
 1053  1874  1889 1
 1054  1875  1880 1
 1055  1875  1876 1
 1056  1876  1877 1
 1057  1877  1878 1
 1058  1878  1879 1
 1059  1879  1880 1
 1060  1889  1890 1
 1061  1890  1891 1
 1062  1890  1905 1
 1063  1891  1896 1
 1064  1891  1892 1
 1065  1892  1893 1
 1066  1893  1894 1
 1067  1894  1895 1
 1068  1895  1896 1
 1069  1905  1906 1
 1070  1906  1907 1
 1071  1907  1912 1
 1072  1907  1908 1
 1073  1908  1909 1
 1074  1909  1910 1
 1075  1910  1911 1
 1076  1911  1912 1
 1077  1921  1922 1
 1078  1922  1923 1
 1079  1922  1937 1
 1080  1923  1928 1
 1081  1923  1924 1
 1082  1924  1925 1
 1083  1925  1926 1
 1084  1926  1927 1
 1085  1927  1928 1
 1086  1937  1938 1
 1087  1938  1939 1
 1088  1938  1953 1
 1089  1939  1944 1
 1090  1939  1940 1
 1091  1940  1941 1
 1092  1941  1942 1
 1093  1942  1943 1
 1094  1943  1944 1
 1095  1953  1954 1
 1096  1954  1955 1
 1097  1954  1969 1
 1098  1955  1960 1
 1099  1955  1956 1
 1100  1956  1957 1
 1101  1957  1958 1
 1102  1958  1959 1
 1103  1959  1960 1
 1104  1969  1970 1
 1105  1970  1971 1
 1106  1970  1985 1
 1107  1971  1976 1
 1108  1971  1972 1
 1109  1972  1973 1
 1110  1973  1974 1
 1111  1974  1975 1
 1112  1975  1976 1
 1113  1985  1986 1
 1114  1986  1987 1
 1115  1986  2001 1
 1116  1987  1992 1
 1117  1987  1988 1
 1118  1988  1989 1
 1119  1989  1990 1
 1120  1990  1991 1
 1121  1991  1992 1
 1122  2001  2002 1
 1123  2002  2003 1
 1124  2002  2017 1
 1125  2003  2008 1
 1126  2003  2004 1
 1127  2004  2005 1
 1128  2005  2006 1
 1129  2006  2007 1
 1130  2007  2008 1
 1131  2017  2018 1
 1132  2018  2019 1
 1133  2018  2033 1
 1134  2019  2024 1
 1135  2019  2020 1
 1136  2020  2021 1
 1137  2021  2022 1
 1138  2022  2023 1
 1139  2023  2024 1
 1140  2033  2034 1
 1141  2034  2035 1
 1142  2034  2049 1
 1143  2035  2040 1
 1144  2035  2036 1
 1145  2036  2037 1
 1146  2037  2038 1
 1147  2038  2039 1
 1148  2039  2040 1
 1149  2049  2050 1
 1150  2050  2051 1
 1151  2050  2065 1
 1152  2051  2056 1
 1153  2051  2052 1
 1154  2052  2053 1
 1155  2053  2054 1
 1156  2054  2055 1
 1157  2055  2056 1
 1158  2065  2066 1
 1159  2066  2067 1
 1160  2066  2081 1
 1161  2067  2072 1
 1162  2067  2068 1
 1163  2068  2069 1
 1164  2069  2070 1
 1165  2070  2071 1
 1166  2071  2072 1
 1167  2081  2082 1
 1168  2082  2083 1
 1169  2082  2097 1
 1170  2083  2088 1
 1171  2083  2084 1
 1172  2084  2085 1
 1173  2085  2086 1
 1174  2086  2087 1
 1175  2087  2088 1
 1176  2097  2098 1
 1177  2098  2099 1
 1178  2098  2113 1
 1179  2099  2104 1
 1180  2099  2100 1
 1181  2100  2101 1
 1182  2101  2102 1
 1183  2102  2103 1
 1184  2103  2104 1
 1185  2113  2114 1
 1186  2114  2115 1
 1187  2114  2129 1
 1188  2115  2120 1
 1189  2115  2116 1
 1190  2116  2117 1
 1191  2117  2118 1
 1192  2118  2119 1
 1193  2119  2120 1
 1194  2129  2130 1
 1195  2130  2131 1
 1196  2130  2145 1
 1197  2131  2136 1
 1198  2131  2132 1
 1199  2132  2133 1
 1200  2133  2134 1
 1201  2134  2135 1
 1202  2135  2136 1
 1203  2145  2146 1
 1204  2146  2147 1
 1205  2146  2161 1
 1206  2147  2152 1
 1207  2147  2148 1
 1208  2148  2149 1
 1209  2149  2150 1
 1210  2150  2151 1
 1211  2151  2152 1
 1212  2161  2162 1
 1213  2162  2163 1
 1214  2162  2177 1
 1215  2163  2168 1
 1216  2163  2164 1
 1217  2164  2165 1
 1218  2165  2166 1
 1219  2166  2167 1
 1220  2167  2168 1
 1221  2177  2178 1
 1222  2178  2179 1
 1223  2178  2193 1
 1224  2179  2184 1
 1225  2179  2180 1
 1226  2180  2181 1
 1227  2181  2182 1
 1228  2182  2183 1
 1229  2183  2184 1
 1230  2193  2194 1
 1231  2194  2195 1
 1232  2194  2209 1
 1233  2195  2200 1
 1234  2195  2196 1
 1235  2196  2197 1
 1236  2197  2198 1
 1237  2198  2199 1
 1238  2199  2200 1
 1239  2209  2210 1
 1240  2210  2211 1
 1241  2210  2225 1
 1242  2211  2216 1
 1243  2211  2212 1
 1244  2212  2213 1
 1245  2213  2214 1
 1246  2214  2215 1
 1247  2215  2216 1
 1248  2225  2226 1
 1249  2226  2227 1
 1250  2226  2241 1
 1251  2227  2232 1
 1252  2227  2228 1
 1253  2228  2229 1
 1254  2229  2230 1
 1255  2230  2231 1
 1256  2231  2232 1
 1257  2241  2242 1
 1258  2242  2243 1
 1259  2242  2257 1
 1260  2243  2248 1
 1261  2243  2244 1
 1262  2244  2245 1
 1263  2245  2246 1
 1264  2246  2247 1
 1265  2247  2248 1
 1266  2257  2258 1
 1267  2258  2259 1
 1268  2258  2273 1
 1269  2259  2264 1
 1270  2259  2260 1
 1271  2260  2261 1
 1272  2261  2262 1
 1273  2262  2263 1
 1274  2263  2264 1
 1275  2273  2274 1
 1276  2274  2275 1
 1277  2274  2289 1
 1278  2275  2280 1
 1279  2275  2276 1
 1280  2276  2277 1
 1281  2277  2278 1
 1282  2278  2279 1
 1283  2279  2280 1
 1284  2289  2290 1
 1285  2290  2291 1
 1286  2290  2305 1
 1287  2291  2296 1
 1288  2291  2292 1
 1289  2292  2293 1
 1290  2293  2294 1
 1291  2294  2295 1
 1292  2295  2296 1
 1293  2305  2306 1
 1294  2306  2307 1
 1295  2306  2321 1
 1296  2307  2312 1
 1297  2307  2308 1
 1298  2308  2309 1
 1299  2309  2310 1
 1300  2310  2311 1
 1301  2311  2312 1
 1302  2321  2322 1
 1303  2322  2323 1
 1304  2322  2337 1
 1305  2323  2328 1
 1306  2323  2324 1
 1307  2324  2325 1
 1308  2325  2326 1
 1309  2326  2327 1
 1310  2327  2328 1
 1311  2337  2338 1
 1312  2338  2339 1
 1313  2338  2353 1
 1314  2339  2344 1
 1315  2339  2340 1
 1316  2340  2341 1
 1317  2341  2342 1
 1318  2342  2343 1
 1319  2343  2344 1
 1320  2353  2354 1
 1321  2354  2355 1
 1322  2354  2369 1
 1323  2355  2360 1
 1324  2355  2356 1
 1325  2356  2357 1
 1326  2357  2358 1
 1327  2358  2359 1
 1328  2359  2360 1
 1329  2369  2370 1
 1330  2370  2371 1
 1331  2370  2385 1
 1332  2371  2376 1
 1333  2371  2372 1
 1334  2372  2373 1
 1335  2373  2374 1
 1336  2374  2375 1
 1337  2375  2376 1
 1338  2385  2386 1
 1339  2386  2387 1
 1340  2387  2392 1
 1341  2387  2388 1
 1342  2388  2389 1
 1343  2389  2390 1
 1344  2390  2391 1
 1345  2391  2392 1
 1346  2401  2402 1
 1347  2402  2403 1
 1348  2402  2417 1
 1349  2403  2408 1
 1350  2403  2404 1
 1351  2404  2405 1
 1352  2405  2406 1
 1353  2406  2407 1
 1354  2407  2408 1
 1355  2417  2418 1
 1356  2418  2419 1
 1357  2418  2433 1
 1358  2419  2424 1
 1359  2419  2420 1
 1360  2420  2421 1
 1361  2421  2422 1
 1362  2422  2423 1
 1363  2423  2424 1
 1364  2433  2434 1
 1365  2434  2435 1
 1366  2434  2449 1
 1367  2435  2440 1
 1368  2435  2436 1
 1369  2436  2437 1
 1370  2437  2438 1
 1371  2438  2439 1
 1372  2439  2440 1
 1373  2449  2450 1
 1374  2450  2451 1
 1375  2450  2465 1
 1376  2451  2456 1
 1377  2451  2452 1
 1378  2452  2453 1
 1379  2453  2454 1
 1380  2454  2455 1
 1381  2455  2456 1
 1382  2465  2466 1
 1383  2466  2467 1
 1384  2466  2481 1
 1385  2467  2472 1
 1386  2467  2468 1
 1387  2468  2469 1
 1388  2469  2470 1
 1389  2470  2471 1
 1390  2471  2472 1
 1391  2481  2482 1
 1392  2482  2483 1
 1393  2482  2497 1
 1394  2483  2488 1
 1395  2483  2484 1
 1396  2484  2485 1
 1397  2485  2486 1
 1398  2486  2487 1
 1399  2487  2488 1
 1400  2497  2498 1
 1401  2498  2499 1
 1402  2498  2513 1
 1403  2499  2504 1
 1404  2499  2500 1
 1405  2500  2501 1
 1406  2501  2502 1
 1407  2502  2503 1
 1408  2503  2504 1
 1409  2513  2514 1
 1410  2514  2515 1
 1411  2514  2529 1
 1412  2515  2520 1
 1413  2515  2516 1
 1414  2516  2517 1
 1415  2517  2518 1
 1416  2518  2519 1
 1417  2519  2520 1
 1418  2529  2530 1
 1419  2530  2531 1
 1420  2530  2545 1
 1421  2531  2536 1
 1422  2531  2532 1
 1423  2532  2533 1
 1424  2533  2534 1
 1425  2534  2535 1
 1426  2535  2536 1
 1427  2545  2546 1
 1428  2546  2547 1
 1429  2546  2561 1
 1430  2547  2552 1
 1431  2547  2548 1
 1432  2548  2549 1
 1433  2549  2550 1
 1434  2550  2551 1
 1435  2551  2552 1
 1436  2561  2562 1
 1437  2562  2563 1
 1438  2562  2577 1
 1439  2563  2568 1
 1440  2563  2564 1
 1441  2564  2565 1
 1442  2565  2566 1
 1443  2566  2567 1
 1444  2567  2568 1
 1445  2577  2578 1
 1446  2578  2579 1
 1447  2578  2593 1
 1448  2579  2584 1
 1449  2579  2580 1
 1450  2580  2581 1
 1451  2581  2582 1
 1452  2582  2583 1
 1453  2583  2584 1
 1454  2593  2594 1
 1455  2594  2595 1
 1456  2594  2609 1
 1457  2595  2600 1
 1458  2595  2596 1
 1459  2596  2597 1
 1460  2597  2598 1
 1461  2598  2599 1
 1462  2599  2600 1
 1463  2609  2610 1
 1464  2610  2611 1
 1465  2610  2625 1
 1466  2611  2616 1
 1467  2611  2612 1
 1468  2612  2613 1
 1469  2613  2614 1
 1470  2614  2615 1
 1471  2615  2616 1
 1472  2625  2626 1
 1473  2626  2627 1
 1474  2626  2641 1
 1475  2627  2632 1
 1476  2627  2628 1
 1477  2628  2629 1
 1478  2629  2630 1
 1479  2630  2631 1
 1480  2631  2632 1
 1481  2641  2642 1
 1482  2642  2643 1
 1483  2642  2657 1
 1484  2643  2648 1
 1485  2643  2644 1
 1486  2644  2645 1
 1487  2645  2646 1
 1488  2646  2647 1
 1489  2647  2648 1
 1490  2657  2658 1
 1491  2658  2659 1
 1492  2658  2673 1
 1493  2659  2664 1
 1494  2659  2660 1
 1495  2660  2661 1
 1496  2661  2662 1
 1497  2662  2663 1
 1498  2663  2664 1
 1499  2673  2674 1
 1500  2674  2675 1
 1501  2674  2689 1
 1502  2675  2680 1
 1503  2675  2676 1
 1504  2676  2677 1
 1505  2677  2678 1
 1506  2678  2679 1
 1507  2679  2680 1
 1508  2689  2690 1
 1509  2690  2691 1
 1510  2690  2705 1
 1511  2691  2696 1
 1512  2691  2692 1
 1513  2692  2693 1
 1514  2693  2694 1
 1515  2694  2695 1
 1516  2695  2696 1
 1517  2705  2706 1
 1518  2706  2707 1
 1519  2706  2721 1
 1520  2707  2712 1
 1521  2707  2708 1
 1522  2708  2709 1
 1523  2709  2710 1
 1524  2710  2711 1
 1525  2711  2712 1
 1526  2721  2722 1
 1527  2722  2723 1
 1528  2722  2737 1
 1529  2723  2728 1
 1530  2723  2724 1
 1531  2724  2725 1
 1532  2725  2726 1
 1533  2726  2727 1
 1534  2727  2728 1
 1535  2737  2738 1
 1536  2738  2739 1
 1537  2738  2753 1
 1538  2739  2744 1
 1539  2739  2740 1
 1540  2740  2741 1
 1541  2741  2742 1
 1542  2742  2743 1
 1543  2743  2744 1
 1544  2753  2754 1
 1545  2754  2755 1
 1546  2754  2769 1
 1547  2755  2760 1
 1548  2755  2756 1
 1549  2756  2757 1
 1550  2757  2758 1
 1551  2758  2759 1
 1552  2759  2760 1
 1553  2769  2770 1
 1554  2770  2771 1
 1555  2770  2785 1
 1556  2771  2776 1
 1557  2771  2772 1
 1558  2772  2773 1
 1559  2773  2774 1
 1560  2774  2775 1
 1561  2775  2776 1
 1562  2785  2786 1
 1563  2786  2787 1
 1564  2786  2801 1
 1565  2787  2792 1
 1566  2787  2788 1
 1567  2788  2789 1
 1568  2789  2790 1
 1569  2790  2791 1
 1570  2791  2792 1
 1571  2801  2802 1
 1572  2802  2803 1
 1573  2802  2817 1
 1574  2803  2808 1
 1575  2803  2804 1
 1576  2804  2805 1
 1577  2805  2806 1
 1578  2806  2807 1
 1579  2807  2808 1
 1580  2817  2818 1
 1581  2818  2819 1
 1582  2818  2833 1
 1583  2819  2824 1
 1584  2819  2820 1
 1585  2820  2821 1
 1586  2821  2822 1
 1587  2822  2823 1
 1588  2823  2824 1
 1589  2833  2834 1
 1590  2834  2835 1
 1591  2834  2849 1
 1592  2835  2840 1
 1593  2835  2836 1
 1594  2836  2837 1
 1595  2837  2838 1
 1596  2838  2839 1
 1597  2839  2840 1
 1598  2849  2850 1
 1599  2850  2851 1
 1600  2850  2865 1
 1601  2851  2856 1
 1602  2851  2852 1
 1603  2852  2853 1
 1604  2853  2854 1
 1605  2854  2855 1
 1606  2855  2856 1
 1607  2865  2866 1
 1608  2866  2867 1
 1609  2867  2872 1
 1610  2867  2868 1
 1611  2868  2869 1
 1612  2869  2870 1
 1613  2870  2871 1
 1614  2871  2872 1
 1615  2881  2882 1
 1616  2882  2883 1
 1617  2882  2897 1
 1618  2883  2888 1
 1619  2883  2884 1
 1620  2884  2885 1
 1621  2885  2886 1
 1622  2886  2887 1
 1623  2887  2888 1
 1624  2897  2898 1
 1625  2898  2899 1
 1626  2898  2913 1
 1627  2899  2904 1
 1628  2899  2900 1
 1629  2900  2901 1
 1630  2901  2902 1
 1631  2902  2903 1
 1632  2903  2904 1
 1633  2913  2914 1
 1634  2914  2915 1
 1635  2914  2929 1
 1636  2915  2920 1
 1637  2915  2916 1
 1638  2916  2917 1
 1639  2917  2918 1
 1640  2918  2919 1
 1641  2919  2920 1
 1642  2929  2930 1
 1643  2930  2931 1
 1644  2930  2945 1
 1645  2931  2936 1
 1646  2931  2932 1
 1647  2932  2933 1
 1648  2933  2934 1
 1649  2934  2935 1
 1650  2935  2936 1
 1651  2945  2946 1
 1652  2946  2947 1
 1653  2946  2961 1
 1654  2947  2952 1
 1655  2947  2948 1
 1656  2948  2949 1
 1657  2949  2950 1
 1658  2950  2951 1
 1659  2951  2952 1
 1660  2961  2962 1
 1661  2962  2963 1
 1662  2962  2977 1
 1663  2963  2968 1
 1664  2963  2964 1
 1665  2964  2965 1
 1666  2965  2966 1
 1667  2966  2967 1
 1668  2967  2968 1
 1669  2977  2978 1
 1670  2978  2979 1
 1671  2978  2993 1
 1672  2979  2984 1
 1673  2979  2980 1
 1674  2980  2981 1
 1675  2981  2982 1
 1676  2982  2983 1
 1677  2983  2984 1
 1678  2993  2994 1
 1679  2994  2995 1
 1680  2994  3009 1
 1681  2995  3000 1
 1682  2995  2996 1
 1683  2996  2997 1
 1684  2997  2998 1
 1685  2998  2999 1
 1686  2999  3000 1
 1687  3009  3010 1
 1688  3010  3011 1
 1689  3010  3025 1
 1690  3011  3016 1
 1691  3011  3012 1
 1692  3012  3013 1
 1693  3013  3014 1
 1694  3014  3015 1
 1695  3015  3016 1
 1696  3025  3026 1
 1697  3026  3027 1
 1698  3026  3041 1
 1699  3027  3032 1
 1700  3027  3028 1
 1701  3028  3029 1
 1702  3029  3030 1
 1703  3030  3031 1
 1704  3031  3032 1
 1705  3041  3042 1
 1706  3042  3043 1
 1707  3042  3057 1
 1708  3043  3048 1
 1709  3043  3044 1
 1710  3044  3045 1
 1711  3045  3046 1
 1712  3046  3047 1
 1713  3047  3048 1
 1714  3057  3058 1
 1715  3058  3059 1
 1716  3058  3073 1
 1717  3059  3064 1
 1718  3059  3060 1
 1719  3060  3061 1
 1720  3061  3062 1
 1721  3062  3063 1
 1722  3063  3064 1
 1723  3073  3074 1
 1724  3074  3075 1
 1725  3074  3089 1
 1726  3075  3080 1
 1727  3075  3076 1
 1728  3076  3077 1
 1729  3077  3078 1
 1730  3078  3079 1
 1731  3079  3080 1
 1732  3089  3090 1
 1733  3090  3091 1
 1734  3090  3105 1
 1735  3091  3096 1
 1736  3091  3092 1
 1737  3092  3093 1
 1738  3093  3094 1
 1739  3094  3095 1
 1740  3095  3096 1
 1741  3105  3106 1
 1742  3106  3107 1
 1743  3106  3121 1
 1744  3107  3112 1
 1745  3107  3108 1
 1746  3108  3109 1
 1747  3109  3110 1
 1748  3110  3111 1
 1749  3111  3112 1
 1750  3121  3122 1
 1751  3122  3123 1
 1752  3122  3137 1
 1753  3123  3128 1
 1754  3123  3124 1
 1755  3124  3125 1
 1756  3125  3126 1
 1757  3126  3127 1
 1758  3127  3128 1
 1759  3137  3138 1
 1760  3138  3139 1
 1761  3138  3153 1
 1762  3139  3144 1
 1763  3139  3140 1
 1764  3140  3141 1
 1765  3141  3142 1
 1766  3142  3143 1
 1767  3143  3144 1
 1768  3153  3154 1
 1769  3154  3155 1
 1770  3154  3169 1
 1771  3155  3160 1
 1772  3155  3156 1
 1773  3156  3157 1
 1774  3157  3158 1
 1775  3158  3159 1
 1776  3159  3160 1
 1777  3169  3170 1
 1778  3170  3171 1
 1779  3170  3185 1
 1780  3171  3176 1
 1781  3171  3172 1
 1782  3172  3173 1
 1783  3173  3174 1
 1784  3174  3175 1
 1785  3175  3176 1
 1786  3185  3186 1
 1787  3186  3187 1
 1788  3186  3201 1
 1789  3187  3192 1
 1790  3187  3188 1
 1791  3188  3189 1
 1792  3189  3190 1
 1793  3190  3191 1
 1794  3191  3192 1
 1795  3201  3202 1
 1796  3202  3203 1
 1797  3202  3217 1
 1798  3203  3208 1
 1799  3203  3204 1
 1800  3204  3205 1
 1801  3205  3206 1
 1802  3206  3207 1
 1803  3207  3208 1
 1804  3217  3218 1
 1805  3218  3219 1
 1806  3218  3233 1
 1807  3219  3224 1
 1808  3219  3220 1
 1809  3220  3221 1
 1810  3221  3222 1
 1811  3222  3223 1
 1812  3223  3224 1
 1813  3233  3234 1
 1814  3234  3235 1
 1815  3234  3249 1
 1816  3235  3240 1
 1817  3235  3236 1
 1818  3236  3237 1
 1819  3237  3238 1
 1820  3238  3239 1
 1821  3239  3240 1
 1822  3249  3250 1
 1823  3250  3251 1
 1824  3250  3265 1
 1825  3251  3256 1
 1826  3251  3252 1
 1827  3252  3253 1
 1828  3253  3254 1
 1829  3254  3255 1
 1830  3255  3256 1
 1831  3265  3266 1
 1832  3266  3267 1
 1833  3266  3281 1
 1834  3267  3272 1
 1835  3267  3268 1
 1836  3268  3269 1
 1837  3269  3270 1
 1838  3270  3271 1
 1839  3271  3272 1
 1840  3281  3282 1
 1841  3282  3283 1
 1842  3282  3297 1
 1843  3283  3288 1
 1844  3283  3284 1
 1845  3284  3285 1
 1846  3285  3286 1
 1847  3286  3287 1
 1848  3287  3288 1
 1849  3297  3298 1
 1850  3298  3299 1
 1851  3298  3313 1
 1852  3299  3304 1
 1853  3299  3300 1
 1854  3300  3301 1
 1855  3301  3302 1
 1856  3302  3303 1
 1857  3303  3304 1
 1858  3313  3314 1
 1859  3314  3315 1
 1860  3314  3329 1
 1861  3315  3320 1
 1862  3315  3316 1
 1863  3316  3317 1
 1864  3317  3318 1
 1865  3318  3319 1
 1866  3319  3320 1
 1867  3329  3330 1
 1868  3330  3331 1
 1869  3330  3345 1
 1870  3331  3336 1
 1871  3331  3332 1
 1872  3332  3333 1
 1873  3333  3334 1
 1874  3334  3335 1
 1875  3335  3336 1
 1876  3345  3346 1
 1877  3346  3347 1
 1878  3347  3352 1
 1879  3347  3348 1
 1880  3348  3349 1
 1881  3349  3350 1
 1882  3350  3351 1
 1883  3351  3352 1
 1884  3361  3362 1
 1885  3362  3363 1
 1886  3362  3377 1
 1887  3363  3368 1
 1888  3363  3364 1
 1889  3364  3365 1
 1890  3365  3366 1
 1891  3366  3367 1
 1892  3367  3368 1
 1893  3377  3378 1
 1894  3378  3379 1
 1895  3378  3393 1
 1896  3379  3384 1
 1897  3379  3380 1
 1898  3380  3381 1
 1899  3381  3382 1
 1900  3382  3383 1
 1901  3383  3384 1
 1902  3393  3394 1
 1903  3394  3395 1
 1904  3394  3409 1
 1905  3395  3400 1
 1906  3395  3396 1
 1907  3396  3397 1
 1908  3397  3398 1
 1909  3398  3399 1
 1910  3399  3400 1
 1911  3409  3410 1
 1912  3410  3411 1
 1913  3410  3425 1
 1914  3411  3416 1
 1915  3411  3412 1
 1916  3412  3413 1
 1917  3413  3414 1
 1918  3414  3415 1
 1919  3415  3416 1
 1920  3425  3426 1
 1921  3426  3427 1
 1922  3426  3441 1
 1923  3427  3432 1
 1924  3427  3428 1
 1925  3428  3429 1
 1926  3429  3430 1
 1927  3430  3431 1
 1928  3431  3432 1
 1929  3441  3442 1
 1930  3442  3443 1
 1931  3442  3457 1
 1932  3443  3448 1
 1933  3443  3444 1
 1934  3444  3445 1
 1935  3445  3446 1
 1936  3446  3447 1
 1937  3447  3448 1
 1938  3457  3458 1
 1939  3458  3459 1
 1940  3458  3473 1
 1941  3459  3464 1
 1942  3459  3460 1
 1943  3460  3461 1
 1944  3461  3462 1
 1945  3462  3463 1
 1946  3463  3464 1
 1947  3473  3474 1
 1948  3474  3475 1
 1949  3474  3489 1
 1950  3475  3480 1
 1951  3475  3476 1
 1952  3476  3477 1
 1953  3477  3478 1
 1954  3478  3479 1
 1955  3479  3480 1
 1956  3489  3490 1
 1957  3490  3491 1
 1958  3490  3505 1
 1959  3491  3496 1
 1960  3491  3492 1
 1961  3492  3493 1
 1962  3493  3494 1
 1963  3494  3495 1
 1964  3495  3496 1
 1965  3505  3506 1
 1966  3506  3507 1
 1967  3506  3521 1
 1968  3507  3512 1
 1969  3507  3508 1
 1970  3508  3509 1
 1971  3509  3510 1
 1972  3510  3511 1
 1973  3511  3512 1
 1974  3521  3522 1
 1975  3522  3523 1
 1976  3522  3537 1
 1977  3523  3528 1
 1978  3523  3524 1
 1979  3524  3525 1
 1980  3525  3526 1
 1981  3526  3527 1
 1982  3527  3528 1
 1983  3537  3538 1
 1984  3538  3539 1
 1985  3538  3553 1
 1986  3539  3544 1
 1987  3539  3540 1
 1988  3540  3541 1
 1989  3541  3542 1
 1990  3542  3543 1
 1991  3543  3544 1
 1992  3553  3554 1
 1993  3554  3555 1
 1994  3554  3569 1
 1995  3555  3560 1
 1996  3555  3556 1
 1997  3556  3557 1
 1998  3557  3558 1
 1999  3558  3559 1
 2000  3559  3560 1
 2001  3569  3570 1
 2002  3570  3571 1
 2003  3570  3585 1
 2004  3571  3576 1
 2005  3571  3572 1
 2006  3572  3573 1
 2007  3573  3574 1
 2008  3574  3575 1
 2009  3575  3576 1
 2010  3585  3586 1
 2011  3586  3587 1
 2012  3586  3601 1
 2013  3587  3592 1
 2014  3587  3588 1
 2015  3588  3589 1
 2016  3589  3590 1
 2017  3590  3591 1
 2018  3591  3592 1
 2019  3601  3602 1
 2020  3602  3603 1
 2021  3602  3617 1
 2022  3603  3608 1
 2023  3603  3604 1
 2024  3604  3605 1
 2025  3605  3606 1
 2026  3606  3607 1
 2027  3607  3608 1
 2028  3617  3618 1
 2029  3618  3619 1
 2030  3618  3633 1
 2031  3619  3624 1
 2032  3619  3620 1
 2033  3620  3621 1
 2034  3621  3622 1
 2035  3622  3623 1
 2036  3623  3624 1
 2037  3633  3634 1
 2038  3634  3635 1
 2039  3634  3649 1
 2040  3635  3640 1
 2041  3635  3636 1
 2042  3636  3637 1
 2043  3637  3638 1
 2044  3638  3639 1
 2045  3639  3640 1
 2046  3649  3650 1
 2047  3650  3651 1
 2048  3650  3665 1
 2049  3651  3656 1
 2050  3651  3652 1
 2051  3652  3653 1
 2052  3653  3654 1
 2053  3654  3655 1
 2054  3655  3656 1
 2055  3665  3666 1
 2056  3666  3667 1
 2057  3666  3681 1
 2058  3667  3672 1
 2059  3667  3668 1
 2060  3668  3669 1
 2061  3669  3670 1
 2062  3670  3671 1
 2063  3671  3672 1
 2064  3681  3682 1
 2065  3682  3683 1
 2066  3682  3697 1
 2067  3683  3688 1
 2068  3683  3684 1
 2069  3684  3685 1
 2070  3685  3686 1
 2071  3686  3687 1
 2072  3687  3688 1
 2073  3697  3698 1
 2074  3698  3699 1
 2075  3698  3713 1
 2076  3699  3704 1
 2077  3699  3700 1
 2078  3700  3701 1
 2079  3701  3702 1
 2080  3702  3703 1
 2081  3703  3704 1
 2082  3713  3714 1
 2083  3714  3715 1
 2084  3714  3729 1
 2085  3715  3720 1
 2086  3715  3716 1
 2087  3716  3717 1
 2088  3717  3718 1
 2089  3718  3719 1
 2090  3719  3720 1
 2091  3729  3730 1
 2092  3730  3731 1
 2093  3730  3745 1
 2094  3731  3736 1
 2095  3731  3732 1
 2096  3732  3733 1
 2097  3733  3734 1
 2098  3734  3735 1
 2099  3735  3736 1
 2100  3745  3746 1
 2101  3746  3747 1
 2102  3746  3761 1
 2103  3747  3752 1
 2104  3747  3748 1
 2105  3748  3749 1
 2106  3749  3750 1
 2107  3750  3751 1
 2108  3751  3752 1
 2109  3761  3762 1
 2110  3762  3763 1
 2111  3762  3777 1
 2112  3763  3768 1
 2113  3763  3764 1
 2114  3764  3765 1
 2115  3765  3766 1
 2116  3766  3767 1
 2117  3767  3768 1
 2118  3777  3778 1
 2119  3778  3779 1
 2120  3778  3793 1
 2121  3779  3784 1
 2122  3779  3780 1
 2123  3780  3781 1
 2124  3781  3782 1
 2125  3782  3783 1
 2126  3783  3784 1
 2127  3793  3794 1
 2128  3794  3795 1
 2129  3794  3809 1
 2130  3795  3800 1
 2131  3795  3796 1
 2132  3796  3797 1
 2133  3797  3798 1
 2134  3798  3799 1
 2135  3799  3800 1
 2136  3809  3810 1
 2137  3810  3811 1
 2138  3810  3825 1
 2139  3811  3816 1
 2140  3811  3812 1
 2141  3812  3813 1
 2142  3813  3814 1
 2143  3814  3815 1
 2144  3815  3816 1
 2145  3825  3826 1
 2146  3826  3827 1
 2147  3827  3832 1
 2148  3827  3828 1
 2149  3828  3829 1
 2150  3829  3830 1
 2151  3830  3831 1
 2152  3831  3832 1
 2153  3841  3842 1
 2154  3842  3843 1
 2155  3842  3857 1
 2156  3843  3848 1
 2157  3843  3844 1
 2158  3844  3845 1
 2159  3845  3846 1
 2160  3846  3847 1
 2161  3847  3848 1
 2162  3857  3858 1
 2163  3858  3859 1
 2164  3858  3873 1
 2165  3859  3864 1
 2166  3859  3860 1
 2167  3860  3861 1
 2168  3861  3862 1
 2169  3862  3863 1
 2170  3863  3864 1
 2171  3873  3874 1
 2172  3874  3875 1
 2173  3874  3889 1
 2174  3875  3880 1
 2175  3875  3876 1
 2176  3876  3877 1
 2177  3877  3878 1
 2178  3878  3879 1
 2179  3879  3880 1
 2180  3889  3890 1
 2181  3890  3891 1
 2182  3890  3905 1
 2183  3891  3896 1
 2184  3891  3892 1
 2185  3892  3893 1
 2186  3893  3894 1
 2187  3894  3895 1
 2188  3895  3896 1
 2189  3905  3906 1
 2190  3906  3907 1
 2191  3906  3921 1
 2192  3907  3912 1
 2193  3907  3908 1
 2194  3908  3909 1
 2195  3909  3910 1
 2196  3910  3911 1
 2197  3911  3912 1
 2198  3921  3922 1
 2199  3922  3923 1
 2200  3922  3937 1
 2201  3923  3928 1
 2202  3923  3924 1
 2203  3924  3925 1
 2204  3925  3926 1
 2205  3926  3927 1
 2206  3927  3928 1
 2207  3937  3938 1
 2208  3938  3939 1
 2209  3938  3953 1
 2210  3939  3944 1
 2211  3939  3940 1
 2212  3940  3941 1
 2213  3941  3942 1
 2214  3942  3943 1
 2215  3943  3944 1
 2216  3953  3954 1
 2217  3954  3955 1
 2218  3954  3969 1
 2219  3955  3960 1
 2220  3955  3956 1
 2221  3956  3957 1
 2222  3957  3958 1
 2223  3958  3959 1
 2224  3959  3960 1
 2225  3969  3970 1
 2226  3970  3971 1
 2227  3970  3985 1
 2228  3971  3976 1
 2229  3971  3972 1
 2230  3972  3973 1
 2231  3973  3974 1
 2232  3974  3975 1
 2233  3975  3976 1
 2234  3985  3986 1
 2235  3986  3987 1
 2236  3986  4001 1
 2237  3987  3992 1
 2238  3987  3988 1
 2239  3988  3989 1
 2240  3989  3990 1
 2241  3990  3991 1
 2242  3991  3992 1
 2243  4001  4002 1
 2244  4002  4003 1
 2245  4002  4017 1
 2246  4003  4008 1
 2247  4003  4004 1
 2248  4004  4005 1
 2249  4005  4006 1
 2250  4006  4007 1
 2251  4007  4008 1
 2252  4017  4018 1
 2253  4018  4019 1
 2254  4018  4033 1
 2255  4019  4024 1
 2256  4019  4020 1
 2257  4020  4021 1
 2258  4021  4022 1
 2259  4022  4023 1
 2260  4023  4024 1
 2261  4033  4034 1
 2262  4034  4035 1
 2263  4034  4049 1
 2264  4035  4040 1
 2265  4035  4036 1
 2266  4036  4037 1
 2267  4037  4038 1
 2268  4038  4039 1
 2269  4039  4040 1
 2270  4049  4050 1
 2271  4050  4051 1
 2272  4050  4065 1
 2273  4051  4056 1
 2274  4051  4052 1
 2275  4052  4053 1
 2276  4053  4054 1
 2277  4054  4055 1
 2278  4055  4056 1
 2279  4065  4066 1
 2280  4066  4067 1
 2281  4066  4081 1
 2282  4067  4072 1
 2283  4067  4068 1
 2284  4068  4069 1
 2285  4069  4070 1
 2286  4070  4071 1
 2287  4071  4072 1
 2288  4081  4082 1
 2289  4082  4083 1
 2290  4082  4097 1
 2291  4083  4088 1
 2292  4083  4084 1
 2293  4084  4085 1
 2294  4085  4086 1
 2295  4086  4087 1
 2296  4087  4088 1
 2297  4097  4098 1
 2298  4098  4099 1
 2299  4098  4113 1
 2300  4099  4104 1
 2301  4099  4100 1
 2302  4100  4101 1
 2303  4101  4102 1
 2304  4102  4103 1
 2305  4103  4104 1
 2306  4113  4114 1
 2307  4114  4115 1
 2308  4114  4129 1
 2309  4115  4120 1
 2310  4115  4116 1
 2311  4116  4117 1
 2312  4117  4118 1
 2313  4118  4119 1
 2314  4119  4120 1
 2315  4129  4130 1
 2316  4130  4131 1
 2317  4130  4145 1
 2318  4131  4136 1
 2319  4131  4132 1
 2320  4132  4133 1
 2321  4133  4134 1
 2322  4134  4135 1
 2323  4135  4136 1
 2324  4145  4146 1
 2325  4146  4147 1
 2326  4146  4161 1
 2327  4147  4152 1
 2328  4147  4148 1
 2329  4148  4149 1
 2330  4149  4150 1
 2331  4150  4151 1
 2332  4151  4152 1
 2333  4161  4162 1
 2334  4162  4163 1
 2335  4162  4177 1
 2336  4163  4168 1
 2337  4163  4164 1
 2338  4164  4165 1
 2339  4165  4166 1
 2340  4166  4167 1
 2341  4167  4168 1
 2342  4177  4178 1
 2343  4178  4179 1
 2344  4178  4193 1
 2345  4179  4184 1
 2346  4179  4180 1
 2347  4180  4181 1
 2348  4181  4182 1
 2349  4182  4183 1
 2350  4183  4184 1
 2351  4193  4194 1
 2352  4194  4195 1
 2353  4194  4209 1
 2354  4195  4200 1
 2355  4195  4196 1
 2356  4196  4197 1
 2357  4197  4198 1
 2358  4198  4199 1
 2359  4199  4200 1
 2360  4209  4210 1
 2361  4210  4211 1
 2362  4210  4225 1
 2363  4211  4216 1
 2364  4211  4212 1
 2365  4212  4213 1
 2366  4213  4214 1
 2367  4214  4215 1
 2368  4215  4216 1
 2369  4225  4226 1
 2370  4226  4227 1
 2371  4226  4241 1
 2372  4227  4232 1
 2373  4227  4228 1
 2374  4228  4229 1
 2375  4229  4230 1
 2376  4230  4231 1
 2377  4231  4232 1
 2378  4241  4242 1
 2379  4242  4243 1
 2380  4242  4257 1
 2381  4243  4248 1
 2382  4243  4244 1
 2383  4244  4245 1
 2384  4245  4246 1
 2385  4246  4247 1
 2386  4247  4248 1
 2387  4257  4258 1
 2388  4258  4259 1
 2389  4258  4273 1
 2390  4259  4264 1
 2391  4259  4260 1
 2392  4260  4261 1
 2393  4261  4262 1
 2394  4262  4263 1
 2395  4263  4264 1
 2396  4273  4274 1
 2397  4274  4275 1
 2398  4274  4289 1
 2399  4275  4280 1
 2400  4275  4276 1
 2401  4276  4277 1
 2402  4277  4278 1
 2403  4278  4279 1
 2404  4279  4280 1
 2405  4289  4290 1
 2406  4290  4291 1
 2407  4290  4305 1
 2408  4291  4296 1
 2409  4291  4292 1
 2410  4292  4293 1
 2411  4293  4294 1
 2412  4294  4295 1
 2413  4295  4296 1
 2414  4305  4306 1
 2415  4306  4307 1
 2416  4307  4312 1
 2417  4307  4308 1
 2418  4308  4309 1
 2419  4309  4310 1
 2420  4310  4311 1
 2421  4311  4312 1
 2422  4321  4322 1
 2423  4322  4323 1
 2424  4322  4337 1
 2425  4323  4328 1
 2426  4323  4324 1
 2427  4324  4325 1
 2428  4325  4326 1
 2429  4326  4327 1
 2430  4327  4328 1
 2431  4337  4338 1
 2432  4338  4339 1
 2433  4338  4353 1
 2434  4339  4344 1
 2435  4339  4340 1
 2436  4340  4341 1
 2437  4341  4342 1
 2438  4342  4343 1
 2439  4343  4344 1
 2440  4353  4354 1
 2441  4354  4355 1
 2442  4354  4369 1
 2443  4355  4360 1
 2444  4355  4356 1
 2445  4356  4357 1
 2446  4357  4358 1
 2447  4358  4359 1
 2448  4359  4360 1
 2449  4369  4370 1
 2450  4370  4371 1
 2451  4370  4385 1
 2452  4371  4376 1
 2453  4371  4372 1
 2454  4372  4373 1
 2455  4373  4374 1
 2456  4374  4375 1
 2457  4375  4376 1
 2458  4385  4386 1
 2459  4386  4387 1
 2460  4386  4401 1
 2461  4387  4392 1
 2462  4387  4388 1
 2463  4388  4389 1
 2464  4389  4390 1
 2465  4390  4391 1
 2466  4391  4392 1
 2467  4401  4402 1
 2468  4402  4403 1
 2469  4402  4417 1
 2470  4403  4408 1
 2471  4403  4404 1
 2472  4404  4405 1
 2473  4405  4406 1
 2474  4406  4407 1
 2475  4407  4408 1
 2476  4417  4418 1
 2477  4418  4419 1
 2478  4418  4433 1
 2479  4419  4424 1
 2480  4419  4420 1
 2481  4420  4421 1
 2482  4421  4422 1
 2483  4422  4423 1
 2484  4423  4424 1
 2485  4433  4434 1
 2486  4434  4435 1
 2487  4434  4449 1
 2488  4435  4440 1
 2489  4435  4436 1
 2490  4436  4437 1
 2491  4437  4438 1
 2492  4438  4439 1
 2493  4439  4440 1
 2494  4449  4450 1
 2495  4450  4451 1
 2496  4450  4465 1
 2497  4451  4456 1
 2498  4451  4452 1
 2499  4452  4453 1
 2500  4453  4454 1
 2501  4454  4455 1
 2502  4455  4456 1
 2503  4465  4466 1
 2504  4466  4467 1
 2505  4466  4481 1
 2506  4467  4472 1
 2507  4467  4468 1
 2508  4468  4469 1
 2509  4469  4470 1
 2510  4470  4471 1
 2511  4471  4472 1
 2512  4481  4482 1
 2513  4482  4483 1
 2514  4482  4497 1
 2515  4483  4488 1
 2516  4483  4484 1
 2517  4484  4485 1
 2518  4485  4486 1
 2519  4486  4487 1
 2520  4487  4488 1
 2521  4497  4498 1
 2522  4498  4499 1
 2523  4498  4513 1
 2524  4499  4504 1
 2525  4499  4500 1
 2526  4500  4501 1
 2527  4501  4502 1
 2528  4502  4503 1
 2529  4503  4504 1
 2530  4513  4514 1
 2531  4514  4515 1
 2532  4514  4529 1
 2533  4515  4520 1
 2534  4515  4516 1
 2535  4516  4517 1
 2536  4517  4518 1
 2537  4518  4519 1
 2538  4519  4520 1
 2539  4529  4530 1
 2540  4530  4531 1
 2541  4530  4545 1
 2542  4531  4536 1
 2543  4531  4532 1
 2544  4532  4533 1
 2545  4533  4534 1
 2546  4534  4535 1
 2547  4535  4536 1
 2548  4545  4546 1
 2549  4546  4547 1
 2550  4546  4561 1
 2551  4547  4552 1
 2552  4547  4548 1
 2553  4548  4549 1
 2554  4549  4550 1
 2555  4550  4551 1
 2556  4551  4552 1
 2557  4561  4562 1
 2558  4562  4563 1
 2559  4562  4577 1
 2560  4563  4568 1
 2561  4563  4564 1
 2562  4564  4565 1
 2563  4565  4566 1
 2564  4566  4567 1
 2565  4567  4568 1
 2566  4577  4578 1
 2567  4578  4579 1
 2568  4578  4593 1
 2569  4579  4584 1
 2570  4579  4580 1
 2571  4580  4581 1
 2572  4581  4582 1
 2573  4582  4583 1
 2574  4583  4584 1
 2575  4593  4594 1
 2576  4594  4595 1
 2577  4594  4609 1
 2578  4595  4600 1
 2579  4595  4596 1
 2580  4596  4597 1
 2581  4597  4598 1
 2582  4598  4599 1
 2583  4599  4600 1
 2584  4609  4610 1
 2585  4610  4611 1
 2586  4610  4625 1
 2587  4611  4616 1
 2588  4611  4612 1
 2589  4612  4613 1
 2590  4613  4614 1
 2591  4614  4615 1
 2592  4615  4616 1
 2593  4625  4626 1
 2594  4626  4627 1
 2595  4626  4641 1
 2596  4627  4632 1
 2597  4627  4628 1
 2598  4628  4629 1
 2599  4629  4630 1
 2600  4630  4631 1
 2601  4631  4632 1
 2602  4641  4642 1
 2603  4642  4643 1
 2604  4642  4657 1
 2605  4643  4648 1
 2606  4643  4644 1
 2607  4644  4645 1
 2608  4645  4646 1
 2609  4646  4647 1
 2610  4647  4648 1
 2611  4657  4658 1
 2612  4658  4659 1
 2613  4658  4673 1
 2614  4659  4664 1
 2615  4659  4660 1
 2616  4660  4661 1
 2617  4661  4662 1
 2618  4662  4663 1
 2619  4663  4664 1
 2620  4673  4674 1
 2621  4674  4675 1
 2622  4674  4689 1
 2623  4675  4680 1
 2624  4675  4676 1
 2625  4676  4677 1
 2626  4677  4678 1
 2627  4678  4679 1
 2628  4679  4680 1
 2629  4689  4690 1
 2630  4690  4691 1
 2631  4690  4705 1
 2632  4691  4696 1
 2633  4691  4692 1
 2634  4692  4693 1
 2635  4693  4694 1
 2636  4694  4695 1
 2637  4695  4696 1
 2638  4705  4706 1
 2639  4706  4707 1
 2640  4706  4721 1
 2641  4707  4712 1
 2642  4707  4708 1
 2643  4708  4709 1
 2644  4709  4710 1
 2645  4710  4711 1
 2646  4711  4712 1
 2647  4721  4722 1
 2648  4722  4723 1
 2649  4722  4737 1
 2650  4723  4728 1
 2651  4723  4724 1
 2652  4724  4725 1
 2653  4725  4726 1
 2654  4726  4727 1
 2655  4727  4728 1
 2656  4737  4738 1
 2657  4738  4739 1
 2658  4738  4753 1
 2659  4739  4744 1
 2660  4739  4740 1
 2661  4740  4741 1
 2662  4741  4742 1
 2663  4742  4743 1
 2664  4743  4744 1
 2665  4753  4754 1
 2666  4754  4755 1
 2667  4754  4769 1
 2668  4755  4760 1
 2669  4755  4756 1
 2670  4756  4757 1
 2671  4757  4758 1
 2672  4758  4759 1
 2673  4759  4760 1
 2674  4769  4770 1
 2675  4770  4771 1
 2676  4770  4785 1
 2677  4771  4776 1
 2678  4771  4772 1
 2679  4772  4773 1
 2680  4773  4774 1
 2681  4774  4775 1
 2682  4775  4776 1
 2683  4785  4786 1
 2684  4786  4787 1
 2685  4787  4792 1
 2686  4787  4788 1
 2687  4788  4789 1
 2688  4789  4790 1
 2689  4790  4791 1
 2690  4791  4792 1
 2691  4801  4802 1
 2692  4802  4803 1
 2693  4802  4817 1
 2694  4803  4808 1
 2695  4803  4804 1
 2696  4804  4805 1
 2697  4805  4806 1
 2698  4806  4807 1
 2699  4807  4808 1
 2700  4817  4818 1
 2701  4818  4819 1
 2702  4818  4833 1
 2703  4819  4824 1
 2704  4819  4820 1
 2705  4820  4821 1
 2706  4821  4822 1
 2707  4822  4823 1
 2708  4823  4824 1
 2709  4833  4834 1
 2710  4834  4835 1
 2711  4834  4849 1
 2712  4835  4840 1
 2713  4835  4836 1
 2714  4836  4837 1
 2715  4837  4838 1
 2716  4838  4839 1
 2717  4839  4840 1
 2718  4849  4850 1
 2719  4850  4851 1
 2720  4850  4865 1
 2721  4851  4856 1
 2722  4851  4852 1
 2723  4852  4853 1
 2724  4853  4854 1
 2725  4854  4855 1
 2726  4855  4856 1
 2727  4865  4866 1
 2728  4866  4867 1
 2729  4866  4881 1
 2730  4867  4872 1
 2731  4867  4868 1
 2732  4868  4869 1
 2733  4869  4870 1
 2734  4870  4871 1
 2735  4871  4872 1
 2736  4881  4882 1
 2737  4882  4883 1
 2738  4882  4897 1
 2739  4883  4888 1
 2740  4883  4884 1
 2741  4884  4885 1
 2742  4885  4886 1
 2743  4886  4887 1
 2744  4887  4888 1
 2745  4897  4898 1
 2746  4898  4899 1
 2747  4898  4913 1
 2748  4899  4904 1
 2749  4899  4900 1
 2750  4900  4901 1
 2751  4901  4902 1
 2752  4902  4903 1
 2753  4903  4904 1
 2754  4913  4914 1
 2755  4914  4915 1
 2756  4914  4929 1
 2757  4915  4920 1
 2758  4915  4916 1
 2759  4916  4917 1
 2760  4917  4918 1
 2761  4918  4919 1
 2762  4919  4920 1
 2763  4929  4930 1
 2764  4930  4931 1
 2765  4930  4945 1
 2766  4931  4936 1
 2767  4931  4932 1
 2768  4932  4933 1
 2769  4933  4934 1
 2770  4934  4935 1
 2771  4935  4936 1
 2772  4945  4946 1
 2773  4946  4947 1
 2774  4946  4961 1
 2775  4947  4952 1
 2776  4947  4948 1
 2777  4948  4949 1
 2778  4949  4950 1
 2779  4950  4951 1
 2780  4951  4952 1
 2781  4961  4962 1
 2782  4962  4963 1
 2783  4962  4977 1
 2784  4963  4968 1
 2785  4963  4964 1
 2786  4964  4965 1
 2787  4965  4966 1
 2788  4966  4967 1
 2789  4967  4968 1
 2790  4977  4978 1
 2791  4978  4979 1
 2792  4978  4993 1
 2793  4979  4984 1
 2794  4979  4980 1
 2795  4980  4981 1
 2796  4981  4982 1
 2797  4982  4983 1
 2798  4983  4984 1
 2799  4993  4994 1
 2800  4994  4995 1
 2801  4994  5009 1
 2802  4995  5000 1
 2803  4995  4996 1
 2804  4996  4997 1
 2805  4997  4998 1
 2806  4998  4999 1
 2807  4999  5000 1
 2808  5009  5010 1
 2809  5010  5011 1
 2810  5010  5025 1
 2811  5011  5016 1
 2812  5011  5012 1
 2813  5012  5013 1
 2814  5013  5014 1
 2815  5014  5015 1
 2816  5015  5016 1
 2817  5025  5026 1
 2818  5026  5027 1
 2819  5026  5041 1
 2820  5027  5032 1
 2821  5027  5028 1
 2822  5028  5029 1
 2823  5029  5030 1
 2824  5030  5031 1
 2825  5031  5032 1
 2826  5041  5042 1
 2827  5042  5043 1
 2828  5042  5057 1
 2829  5043  5048 1
 2830  5043  5044 1
 2831  5044  5045 1
 2832  5045  5046 1
 2833  5046  5047 1
 2834  5047  5048 1
 2835  5057  5058 1
 2836  5058  5059 1
 2837  5058  5073 1
 2838  5059  5064 1
 2839  5059  5060 1
 2840  5060  5061 1
 2841  5061  5062 1
 2842  5062  5063 1
 2843  5063  5064 1
 2844  5073  5074 1
 2845  5074  5075 1
 2846  5074  5089 1
 2847  5075  5080 1
 2848  5075  5076 1
 2849  5076  5077 1
 2850  5077  5078 1
 2851  5078  5079 1
 2852  5079  5080 1
 2853  5089  5090 1
 2854  5090  5091 1
 2855  5090  5105 1
 2856  5091  5096 1
 2857  5091  5092 1
 2858  5092  5093 1
 2859  5093  5094 1
 2860  5094  5095 1
 2861  5095  5096 1
 2862  5105  5106 1
 2863  5106  5107 1
 2864  5106  5121 1
 2865  5107  5112 1
 2866  5107  5108 1
 2867  5108  5109 1
 2868  5109  5110 1
 2869  5110  5111 1
 2870  5111  5112 1
 2871  5121  5122 1
 2872  5122  5123 1
 2873  5122  5137 1
 2874  5123  5128 1
 2875  5123  5124 1
 2876  5124  5125 1
 2877  5125  5126 1
 2878  5126  5127 1
 2879  5127  5128 1
 2880  5137  5138 1
 2881  5138  5139 1
 2882  5138  5153 1
 2883  5139  5144 1
 2884  5139  5140 1
 2885  5140  5141 1
 2886  5141  5142 1
 2887  5142  5143 1
 2888  5143  5144 1
 2889  5153  5154 1
 2890  5154  5155 1
 2891  5154  5169 1
 2892  5155  5160 1
 2893  5155  5156 1
 2894  5156  5157 1
 2895  5157  5158 1
 2896  5158  5159 1
 2897  5159  5160 1
 2898  5169  5170 1
 2899  5170  5171 1
 2900  5170  5185 1
 2901  5171  5176 1
 2902  5171  5172 1
 2903  5172  5173 1
 2904  5173  5174 1
 2905  5174  5175 1
 2906  5175  5176 1
 2907  5185  5186 1
 2908  5186  5187 1
 2909  5186  5201 1
 2910  5187  5192 1
 2911  5187  5188 1
 2912  5188  5189 1
 2913  5189  5190 1
 2914  5190  5191 1
 2915  5191  5192 1
 2916  5201  5202 1
 2917  5202  5203 1
 2918  5202  5217 1
 2919  5203  5208 1
 2920  5203  5204 1
 2921  5204  5205 1
 2922  5205  5206 1
 2923  5206  5207 1
 2924  5207  5208 1
 2925  5217  5218 1
 2926  5218  5219 1
 2927  5218  5233 1
 2928  5219  5224 1
 2929  5219  5220 1
 2930  5220  5221 1
 2931  5221  5222 1
 2932  5222  5223 1
 2933  5223  5224 1
 2934  5233  5234 1
 2935  5234  5235 1
 2936  5234  5249 1
 2937  5235  5240 1
 2938  5235  5236 1
 2939  5236  5237 1
 2940  5237  5238 1
 2941  5238  5239 1
 2942  5239  5240 1
 2943  5249  5250 1
 2944  5250  5251 1
 2945  5250  5265 1
 2946  5251  5256 1
 2947  5251  5252 1
 2948  5252  5253 1
 2949  5253  5254 1
 2950  5254  5255 1
 2951  5255  5256 1
 2952  5265  5266 1
 2953  5266  5267 1
 2954  5267  5272 1
 2955  5267  5268 1
 2956  5268  5269 1
 2957  5269  5270 1
 2958  5270  5271 1
 2959  5271  5272 1
 2960  5281  5282 1
 2961  5282  5283 1
 2962  5282  5297 1
 2963  5283  5288 1
 2964  5283  5284 1
 2965  5284  5285 1
 2966  5285  5286 1
 2967  5286  5287 1
 2968  5287  5288 1
 2969  5297  5298 1
 2970  5298  5299 1
 2971  5298  5313 1
 2972  5299  5304 1
 2973  5299  5300 1
 2974  5300  5301 1
 2975  5301  5302 1
 2976  5302  5303 1
 2977  5303  5304 1
 2978  5313  5314 1
 2979  5314  5315 1
 2980  5314  5329 1
 2981  5315  5320 1
 2982  5315  5316 1
 2983  5316  5317 1
 2984  5317  5318 1
 2985  5318  5319 1
 2986  5319  5320 1
 2987  5329  5330 1
 2988  5330  5331 1
 2989  5330  5345 1
 2990  5331  5336 1
 2991  5331  5332 1
 2992  5332  5333 1
 2993  5333  5334 1
 2994  5334  5335 1
 2995  5335  5336 1
 2996  5345  5346 1
 2997  5346  5347 1
 2998  5346  5361 1
 2999  5347  5352 1
 3000  5347  5348 1
 3001  5348  5349 1
 3002  5349  5350 1
 3003  5350  5351 1
 3004  5351  5352 1
 3005  5361  5362 1
 3006  5362  5363 1
 3007  5362  5377 1
 3008  5363  5368 1
 3009  5363  5364 1
 3010  5364  5365 1
 3011  5365  5366 1
 3012  5366  5367 1
 3013  5367  5368 1
 3014  5377  5378 1
 3015  5378  5379 1
 3016  5378  5393 1
 3017  5379  5384 1
 3018  5379  5380 1
 3019  5380  5381 1
 3020  5381  5382 1
 3021  5382  5383 1
 3022  5383  5384 1
 3023  5393  5394 1
 3024  5394  5395 1
 3025  5394  5409 1
 3026  5395  5400 1
 3027  5395  5396 1
 3028  5396  5397 1
 3029  5397  5398 1
 3030  5398  5399 1
 3031  5399  5400 1
 3032  5409  5410 1
 3033  5410  5411 1
 3034  5410  5425 1
 3035  5411  5416 1
 3036  5411  5412 1
 3037  5412  5413 1
 3038  5413  5414 1
 3039  5414  5415 1
 3040  5415  5416 1
 3041  5425  5426 1
 3042  5426  5427 1
 3043  5426  5441 1
 3044  5427  5432 1
 3045  5427  5428 1
 3046  5428  5429 1
 3047  5429  5430 1
 3048  5430  5431 1
 3049  5431  5432 1
 3050  5441  5442 1
 3051  5442  5443 1
 3052  5442  5457 1
 3053  5443  5448 1
 3054  5443  5444 1
 3055  5444  5445 1
 3056  5445  5446 1
 3057  5446  5447 1
 3058  5447  5448 1
 3059  5457  5458 1
 3060  5458  5459 1
 3061  5458  5473 1
 3062  5459  5464 1
 3063  5459  5460 1
 3064  5460  5461 1
 3065  5461  5462 1
 3066  5462  5463 1
 3067  5463  5464 1
 3068  5473  5474 1
 3069  5474  5475 1
 3070  5474  5489 1
 3071  5475  5480 1
 3072  5475  5476 1
 3073  5476  5477 1
 3074  5477  5478 1
 3075  5478  5479 1
 3076  5479  5480 1
 3077  5489  5490 1
 3078  5490  5491 1
 3079  5490  5505 1
 3080  5491  5496 1
 3081  5491  5492 1
 3082  5492  5493 1
 3083  5493  5494 1
 3084  5494  5495 1
 3085  5495  5496 1
 3086  5505  5506 1
 3087  5506  5507 1
 3088  5506  5521 1
 3089  5507  5512 1
 3090  5507  5508 1
 3091  5508  5509 1
 3092  5509  5510 1
 3093  5510  5511 1
 3094  5511  5512 1
 3095  5521  5522 1
 3096  5522  5523 1
 3097  5522  5537 1
 3098  5523  5528 1
 3099  5523  5524 1
 3100  5524  5525 1
 3101  5525  5526 1
 3102  5526  5527 1
 3103  5527  5528 1
 3104  5537  5538 1
 3105  5538  5539 1
 3106  5538  5553 1
 3107  5539  5544 1
 3108  5539  5540 1
 3109  5540  5541 1
 3110  5541  5542 1
 3111  5542  5543 1
 3112  5543  5544 1
 3113  5553  5554 1
 3114  5554  5555 1
 3115  5554  5569 1
 3116  5555  5560 1
 3117  5555  5556 1
 3118  5556  5557 1
 3119  5557  5558 1
 3120  5558  5559 1
 3121  5559  5560 1
 3122  5569  5570 1
 3123  5570  5571 1
 3124  5570  5585 1
 3125  5571  5576 1
 3126  5571  5572 1
 3127  5572  5573 1
 3128  5573  5574 1
 3129  5574  5575 1
 3130  5575  5576 1
 3131  5585  5586 1
 3132  5586  5587 1
 3133  5586  5601 1
 3134  5587  5592 1
 3135  5587  5588 1
 3136  5588  5589 1
 3137  5589  5590 1
 3138  5590  5591 1
 3139  5591  5592 1
 3140  5601  5602 1
 3141  5602  5603 1
 3142  5602  5617 1
 3143  5603  5608 1
 3144  5603  5604 1
 3145  5604  5605 1
 3146  5605  5606 1
 3147  5606  5607 1
 3148  5607  5608 1
 3149  5617  5618 1
 3150  5618  5619 1
 3151  5618  5633 1
 3152  5619  5624 1
 3153  5619  5620 1
 3154  5620  5621 1
 3155  5621  5622 1
 3156  5622  5623 1
 3157  5623  5624 1
 3158  5633  5634 1
 3159  5634  5635 1
 3160  5634  5649 1
 3161  5635  5640 1
 3162  5635  5636 1
 3163  5636  5637 1
 3164  5637  5638 1
 3165  5638  5639 1
 3166  5639  5640 1
 3167  5649  5650 1
 3168  5650  5651 1
 3169  5650  5665 1
 3170  5651  5656 1
 3171  5651  5652 1
 3172  5652  5653 1
 3173  5653  5654 1
 3174  5654  5655 1
 3175  5655  5656 1
 3176  5665  5666 1
 3177  5666  5667 1
 3178  5666  5681 1
 3179  5667  5672 1
 3180  5667  5668 1
 3181  5668  5669 1
 3182  5669  5670 1
 3183  5670  5671 1
 3184  5671  5672 1
 3185  5681  5682 1
 3186  5682  5683 1
 3187  5682  5697 1
 3188  5683  5688 1
 3189  5683  5684 1
 3190  5684  5685 1
 3191  5685  5686 1
 3192  5686  5687 1
 3193  5687  5688 1
 3194  5697  5698 1
 3195  5698  5699 1
 3196  5698  5713 1
 3197  5699  5704 1
 3198  5699  5700 1
 3199  5700  5701 1
 3200  5701  5702 1
 3201  5702  5703 1
 3202  5703  5704 1
 3203  5713  5714 1
 3204  5714  5715 1
 3205  5714  5729 1
 3206  5715  5720 1
 3207  5715  5716 1
 3208  5716  5717 1
 3209  5717  5718 1
 3210  5718  5719 1
 3211  5719  5720 1
 3212  5729  5730 1
 3213  5730  5731 1
 3214  5730  5745 1
 3215  5731  5736 1
 3216  5731  5732 1
 3217  5732  5733 1
 3218  5733  5734 1
 3219  5734  5735 1
 3220  5735  5736 1
 3221  5745  5746 1
 3222  5746  5747 1
 3223  5747  5752 1
 3224  5747  5748 1
 3225  5748  5749 1
 3226  5749  5750 1
 3227  5750  5751 1
 3228  5751  5752 1
 3229  5761  5762 1
 3230  5762  5763 1
 3231  5762  5777 1
 3232  5763  5768 1
 3233  5763  5764 1
 3234  5764  5765 1
 3235  5765  5766 1
 3236  5766  5767 1
 3237  5767  5768 1
 3238  5777  5778 1
 3239  5778  5779 1
 3240  5778  5793 1
 3241  5779  5784 1
 3242  5779  5780 1
 3243  5780  5781 1
 3244  5781  5782 1
 3245  5782  5783 1
 3246  5783  5784 1
 3247  5793  5794 1
 3248  5794  5795 1
 3249  5794  5809 1
 3250  5795  5800 1
 3251  5795  5796 1
 3252  5796  5797 1
 3253  5797  5798 1
 3254  5798  5799 1
 3255  5799  5800 1
 3256  5809  5810 1
 3257  5810  5811 1
 3258  5810  5825 1
 3259  5811  5816 1
 3260  5811  5812 1
 3261  5812  5813 1
 3262  5813  5814 1
 3263  5814  5815 1
 3264  5815  5816 1
 3265  5825  5826 1
 3266  5826  5827 1
 3267  5826  5841 1
 3268  5827  5832 1
 3269  5827  5828 1
 3270  5828  5829 1
 3271  5829  5830 1
 3272  5830  5831 1
 3273  5831  5832 1
 3274  5841  5842 1
 3275  5842  5843 1
 3276  5842  5857 1
 3277  5843  5848 1
 3278  5843  5844 1
 3279  5844  5845 1
 3280  5845  5846 1
 3281  5846  5847 1
 3282  5847  5848 1
 3283  5857  5858 1
 3284  5858  5859 1
 3285  5858  5873 1
 3286  5859  5864 1
 3287  5859  5860 1
 3288  5860  5861 1
 3289  5861  5862 1
 3290  5862  5863 1
 3291  5863  5864 1
 3292  5873  5874 1
 3293  5874  5875 1
 3294  5874  5889 1
 3295  5875  5880 1
 3296  5875  5876 1
 3297  5876  5877 1
 3298  5877  5878 1
 3299  5878  5879 1
 3300  5879  5880 1
 3301  5889  5890 1
 3302  5890  5891 1
 3303  5890  5905 1
 3304  5891  5896 1
 3305  5891  5892 1
 3306  5892  5893 1
 3307  5893  5894 1
 3308  5894  5895 1
 3309  5895  5896 1
 3310  5905  5906 1
 3311  5906  5907 1
 3312  5906  5921 1
 3313  5907  5912 1
 3314  5907  5908 1
 3315  5908  5909 1
 3316  5909  5910 1
 3317  5910  5911 1
 3318  5911  5912 1
 3319  5921  5922 1
 3320  5922  5923 1
 3321  5922  5937 1
 3322  5923  5928 1
 3323  5923  5924 1
 3324  5924  5925 1
 3325  5925  5926 1
 3326  5926  5927 1
 3327  5927  5928 1
 3328  5937  5938 1
 3329  5938  5939 1
 3330  5938  5953 1
 3331  5939  5944 1
 3332  5939  5940 1
 3333  5940  5941 1
 3334  5941  5942 1
 3335  5942  5943 1
 3336  5943  5944 1
 3337  5953  5954 1
 3338  5954  5955 1
 3339  5954  5969 1
 3340  5955  5960 1
 3341  5955  5956 1
 3342  5956  5957 1
 3343  5957  5958 1
 3344  5958  5959 1
 3345  5959  5960 1
 3346  5969  5970 1
 3347  5970  5971 1
 3348  5970  5985 1
 3349  5971  5976 1
 3350  5971  5972 1
 3351  5972  5973 1
 3352  5973  5974 1
 3353  5974  5975 1
 3354  5975  5976 1
 3355  5985  5986 1
 3356  5986  5987 1
 3357  5986  6001 1
 3358  5987  5992 1
 3359  5987  5988 1
 3360  5988  5989 1
 3361  5989  5990 1
 3362  5990  5991 1
 3363  5991  5992 1
 3364  6001  6002 1
 3365  6002  6003 1
 3366  6002  6017 1
 3367  6003  6008 1
 3368  6003  6004 1
 3369  6004  6005 1
 3370  6005  6006 1
 3371  6006  6007 1
 3372  6007  6008 1
 3373  6017  6018 1
 3374  6018  6019 1
 3375  6018  6033 1
 3376  6019  6024 1
 3377  6019  6020 1
 3378  6020  6021 1
 3379  6021  6022 1
 3380  6022  6023 1
 3381  6023  6024 1
 3382  6033  6034 1
 3383  6034  6035 1
 3384  6034  6049 1
 3385  6035  6040 1
 3386  6035  6036 1
 3387  6036  6037 1
 3388  6037  6038 1
 3389  6038  6039 1
 3390  6039  6040 1
 3391  6049  6050 1
 3392  6050  6051 1
 3393  6050  6065 1
 3394  6051  6056 1
 3395  6051  6052 1
 3396  6052  6053 1
 3397  6053  6054 1
 3398  6054  6055 1
 3399  6055  6056 1
 3400  6065  6066 1
 3401  6066  6067 1
 3402  6066  6081 1
 3403  6067  6072 1
 3404  6067  6068 1
 3405  6068  6069 1
 3406  6069  6070 1
 3407  6070  6071 1
 3408  6071  6072 1
 3409  6081  6082 1
 3410  6082  6083 1
 3411  6082  6097 1
 3412  6083  6088 1
 3413  6083  6084 1
 3414  6084  6085 1
 3415  6085  6086 1
 3416  6086  6087 1
 3417  6087  6088 1
 3418  6097  6098 1
 3419  6098  6099 1
 3420  6098  6113 1
 3421  6099  6104 1
 3422  6099  6100 1
 3423  6100  6101 1
 3424  6101  6102 1
 3425  6102  6103 1
 3426  6103  6104 1
 3427  6113  6114 1
 3428  6114  6115 1
 3429  6114  6129 1
 3430  6115  6120 1
 3431  6115  6116 1
 3432  6116  6117 1
 3433  6117  6118 1
 3434  6118  6119 1
 3435  6119  6120 1
 3436  6129  6130 1
 3437  6130  6131 1
 3438  6130  6145 1
 3439  6131  6136 1
 3440  6131  6132 1
 3441  6132  6133 1
 3442  6133  6134 1
 3443  6134  6135 1
 3444  6135  6136 1
 3445  6145  6146 1
 3446  6146  6147 1
 3447  6146  6161 1
 3448  6147  6152 1
 3449  6147  6148 1
 3450  6148  6149 1
 3451  6149  6150 1
 3452  6150  6151 1
 3453  6151  6152 1
 3454  6161  6162 1
 3455  6162  6163 1
 3456  6162  6177 1
 3457  6163  6168 1
 3458  6163  6164 1
 3459  6164  6165 1
 3460  6165  6166 1
 3461  6166  6167 1
 3462  6167  6168 1
 3463  6177  6178 1
 3464  6178  6179 1
 3465  6178  6193 1
 3466  6179  6184 1
 3467  6179  6180 1
 3468  6180  6181 1
 3469  6181  6182 1
 3470  6182  6183 1
 3471  6183  6184 1
 3472  6193  6194 1
 3473  6194  6195 1
 3474  6194  6209 1
 3475  6195  6200 1
 3476  6195  6196 1
 3477  6196  6197 1
 3478  6197  6198 1
 3479  6198  6199 1
 3480  6199  6200 1
 3481  6209  6210 1
 3482  6210  6211 1
 3483  6210  6225 1
 3484  6211  6216 1
 3485  6211  6212 1
 3486  6212  6213 1
 3487  6213  6214 1
 3488  6214  6215 1
 3489  6215  6216 1
 3490  6225  6226 1
 3491  6226  6227 1
 3492  6227  6232 1
 3493  6227  6228 1
 3494  6228  6229 1
 3495  6229  6230 1
 3496  6230  6231 1
 3497  6231  6232 1
 3498  6241  6242 1
 3499  6242  6243 1
 3500  6242  6257 1
 3501  6243  6248 1
 3502  6243  6244 1
 3503  6244  6245 1
 3504  6245  6246 1
 3505  6246  6247 1
 3506  6247  6248 1
 3507  6257  6258 1
 3508  6258  6259 1
 3509  6258  6273 1
 3510  6259  6264 1
 3511  6259  6260 1
 3512  6260  6261 1
 3513  6261  6262 1
 3514  6262  6263 1
 3515  6263  6264 1
 3516  6273  6274 1
 3517  6274  6275 1
 3518  6274  6289 1
 3519  6275  6280 1
 3520  6275  6276 1
 3521  6276  6277 1
 3522  6277  6278 1
 3523  6278  6279 1
 3524  6279  6280 1
 3525  6289  6290 1
 3526  6290  6291 1
 3527  6290  6305 1
 3528  6291  6296 1
 3529  6291  6292 1
 3530  6292  6293 1
 3531  6293  6294 1
 3532  6294  6295 1
 3533  6295  6296 1
 3534  6305  6306 1
 3535  6306  6307 1
 3536  6306  6321 1
 3537  6307  6312 1
 3538  6307  6308 1
 3539  6308  6309 1
 3540  6309  6310 1
 3541  6310  6311 1
 3542  6311  6312 1
 3543  6321  6322 1
 3544  6322  6323 1
 3545  6322  6337 1
 3546  6323  6328 1
 3547  6323  6324 1
 3548  6324  6325 1
 3549  6325  6326 1
 3550  6326  6327 1
 3551  6327  6328 1
 3552  6337  6338 1
 3553  6338  6339 1
 3554  6338  6353 1
 3555  6339  6344 1
 3556  6339  6340 1
 3557  6340  6341 1
 3558  6341  6342 1
 3559  6342  6343 1
 3560  6343  6344 1
 3561  6353  6354 1
 3562  6354  6355 1
 3563  6354  6369 1
 3564  6355  6360 1
 3565  6355  6356 1
 3566  6356  6357 1
 3567  6357  6358 1
 3568  6358  6359 1
 3569  6359  6360 1
 3570  6369  6370 1
 3571  6370  6371 1
 3572  6370  6385 1
 3573  6371  6376 1
 3574  6371  6372 1
 3575  6372  6373 1
 3576  6373  6374 1
 3577  6374  6375 1
 3578  6375  6376 1
 3579  6385  6386 1
 3580  6386  6387 1
 3581  6386  6401 1
 3582  6387  6392 1
 3583  6387  6388 1
 3584  6388  6389 1
 3585  6389  6390 1
 3586  6390  6391 1
 3587  6391  6392 1
 3588  6401  6402 1
 3589  6402  6403 1
 3590  6402  6417 1
 3591  6403  6408 1
 3592  6403  6404 1
 3593  6404  6405 1
 3594  6405  6406 1
 3595  6406  6407 1
 3596  6407  6408 1
 3597  6417  6418 1
 3598  6418  6419 1
 3599  6418  6433 1
 3600  6419  6424 1
 3601  6419  6420 1
 3602  6420  6421 1
 3603  6421  6422 1
 3604  6422  6423 1
 3605  6423  6424 1
 3606  6433  6434 1
 3607  6434  6435 1
 3608  6434  6449 1
 3609  6435  6440 1
 3610  6435  6436 1
 3611  6436  6437 1
 3612  6437  6438 1
 3613  6438  6439 1
 3614  6439  6440 1
 3615  6449  6450 1
 3616  6450  6451 1
 3617  6450  6465 1
 3618  6451  6456 1
 3619  6451  6452 1
 3620  6452  6453 1
 3621  6453  6454 1
 3622  6454  6455 1
 3623  6455  6456 1
 3624  6465  6466 1
 3625  6466  6467 1
 3626  6466  6481 1
 3627  6467  6472 1
 3628  6467  6468 1
 3629  6468  6469 1
 3630  6469  6470 1
 3631  6470  6471 1
 3632  6471  6472 1
 3633  6481  6482 1
 3634  6482  6483 1
 3635  6482  6497 1
 3636  6483  6488 1
 3637  6483  6484 1
 3638  6484  6485 1
 3639  6485  6486 1
 3640  6486  6487 1
 3641  6487  6488 1
 3642  6497  6498 1
 3643  6498  6499 1
 3644  6498  6513 1
 3645  6499  6504 1
 3646  6499  6500 1
 3647  6500  6501 1
 3648  6501  6502 1
 3649  6502  6503 1
 3650  6503  6504 1
 3651  6513  6514 1
 3652  6514  6515 1
 3653  6514  6529 1
 3654  6515  6520 1
 3655  6515  6516 1
 3656  6516  6517 1
 3657  6517  6518 1
 3658  6518  6519 1
 3659  6519  6520 1
 3660  6529  6530 1
 3661  6530  6531 1
 3662  6530  6545 1
 3663  6531  6536 1
 3664  6531  6532 1
 3665  6532  6533 1
 3666  6533  6534 1
 3667  6534  6535 1
 3668  6535  6536 1
 3669  6545  6546 1
 3670  6546  6547 1
 3671  6546  6561 1
 3672  6547  6552 1
 3673  6547  6548 1
 3674  6548  6549 1
 3675  6549  6550 1
 3676  6550  6551 1
 3677  6551  6552 1
 3678  6561  6562 1
 3679  6562  6563 1
 3680  6562  6577 1
 3681  6563  6568 1
 3682  6563  6564 1
 3683  6564  6565 1
 3684  6565  6566 1
 3685  6566  6567 1
 3686  6567  6568 1
 3687  6577  6578 1
 3688  6578  6579 1
 3689  6578  6593 1
 3690  6579  6584 1
 3691  6579  6580 1
 3692  6580  6581 1
 3693  6581  6582 1
 3694  6582  6583 1
 3695  6583  6584 1
 3696  6593  6594 1
 3697  6594  6595 1
 3698  6594  6609 1
 3699  6595  6600 1
 3700  6595  6596 1
 3701  6596  6597 1
 3702  6597  6598 1
 3703  6598  6599 1
 3704  6599  6600 1
 3705  6609  6610 1
 3706  6610  6611 1
 3707  6610  6625 1
 3708  6611  6616 1
 3709  6611  6612 1
 3710  6612  6613 1
 3711  6613  6614 1
 3712  6614  6615 1
 3713  6615  6616 1
 3714  6625  6626 1
 3715  6626  6627 1
 3716  6626  6641 1
 3717  6627  6632 1
 3718  6627  6628 1
 3719  6628  6629 1
 3720  6629  6630 1
 3721  6630  6631 1
 3722  6631  6632 1
 3723  6641  6642 1
 3724  6642  6643 1
 3725  6642  6657 1
 3726  6643  6648 1
 3727  6643  6644 1
 3728  6644  6645 1
 3729  6645  6646 1
 3730  6646  6647 1
 3731  6647  6648 1
 3732  6657  6658 1
 3733  6658  6659 1
 3734  6658  6673 1
 3735  6659  6664 1
 3736  6659  6660 1
 3737  6660  6661 1
 3738  6661  6662 1
 3739  6662  6663 1
 3740  6663  6664 1
 3741  6673  6674 1
 3742  6674  6675 1
 3743  6674  6689 1
 3744  6675  6680 1
 3745  6675  6676 1
 3746  6676  6677 1
 3747  6677  6678 1
 3748  6678  6679 1
 3749  6679  6680 1
 3750  6689  6690 1
 3751  6690  6691 1
 3752  6690  6705 1
 3753  6691  6696 1
 3754  6691  6692 1
 3755  6692  6693 1
 3756  6693  6694 1
 3757  6694  6695 1
 3758  6695  6696 1
 3759  6705  6706 1
 3760  6706  6707 1
 3761  6707  6712 1
 3762  6707  6708 1
 3763  6708  6709 1
 3764  6709  6710 1
 3765  6710  6711 1
 3766  6711  6712 1
 3767  6721  6722 1
 3768  6722  6723 1
 3769  6722  6737 1
 3770  6723  6728 1
 3771  6723  6724 1
 3772  6724  6725 1
 3773  6725  6726 1
 3774  6726  6727 1
 3775  6727  6728 1
 3776  6737  6738 1
 3777  6738  6739 1
 3778  6738  6753 1
 3779  6739  6744 1
 3780  6739  6740 1
 3781  6740  6741 1
 3782  6741  6742 1
 3783  6742  6743 1
 3784  6743  6744 1
 3785  6753  6754 1
 3786  6754  6755 1
 3787  6754  6769 1
 3788  6755  6760 1
 3789  6755  6756 1
 3790  6756  6757 1
 3791  6757  6758 1
 3792  6758  6759 1
 3793  6759  6760 1
 3794  6769  6770 1
 3795  6770  6771 1
 3796  6770  6785 1
 3797  6771  6776 1
 3798  6771  6772 1
 3799  6772  6773 1
 3800  6773  6774 1
 3801  6774  6775 1
 3802  6775  6776 1
 3803  6785  6786 1
 3804  6786  6787 1
 3805  6786  6801 1
 3806  6787  6792 1
 3807  6787  6788 1
 3808  6788  6789 1
 3809  6789  6790 1
 3810  6790  6791 1
 3811  6791  6792 1
 3812  6801  6802 1
 3813  6802  6803 1
 3814  6802  6817 1
 3815  6803  6808 1
 3816  6803  6804 1
 3817  6804  6805 1
 3818  6805  6806 1
 3819  6806  6807 1
 3820  6807  6808 1
 3821  6817  6818 1
 3822  6818  6819 1
 3823  6818  6833 1
 3824  6819  6824 1
 3825  6819  6820 1
 3826  6820  6821 1
 3827  6821  6822 1
 3828  6822  6823 1
 3829  6823  6824 1
 3830  6833  6834 1
 3831  6834  6835 1
 3832  6834  6849 1
 3833  6835  6840 1
 3834  6835  6836 1
 3835  6836  6837 1
 3836  6837  6838 1
 3837  6838  6839 1
 3838  6839  6840 1
 3839  6849  6850 1
 3840  6850  6851 1
 3841  6850  6865 1
 3842  6851  6856 1
 3843  6851  6852 1
 3844  6852  6853 1
 3845  6853  6854 1
 3846  6854  6855 1
 3847  6855  6856 1
 3848  6865  6866 1
 3849  6866  6867 1
 3850  6866  6881 1
 3851  6867  6872 1
 3852  6867  6868 1
 3853  6868  6869 1
 3854  6869  6870 1
 3855  6870  6871 1
 3856  6871  6872 1
 3857  6881  6882 1
 3858  6882  6883 1
 3859  6882  6897 1
 3860  6883  6888 1
 3861  6883  6884 1
 3862  6884  6885 1
 3863  6885  6886 1
 3864  6886  6887 1
 3865  6887  6888 1
 3866  6897  6898 1
 3867  6898  6899 1
 3868  6898  6913 1
 3869  6899  6904 1
 3870  6899  6900 1
 3871  6900  6901 1
 3872  6901  6902 1
 3873  6902  6903 1
 3874  6903  6904 1
 3875  6913  6914 1
 3876  6914  6915 1
 3877  6914  6929 1
 3878  6915  6920 1
 3879  6915  6916 1
 3880  6916  6917 1
 3881  6917  6918 1
 3882  6918  6919 1
 3883  6919  6920 1
 3884  6929  6930 1
 3885  6930  6931 1
 3886  6930  6945 1
 3887  6931  6936 1
 3888  6931  6932 1
 3889  6932  6933 1
 3890  6933  6934 1
 3891  6934  6935 1
 3892  6935  6936 1
 3893  6945  6946 1
 3894  6946  6947 1
 3895  6946  6961 1
 3896  6947  6952 1
 3897  6947  6948 1
 3898  6948  6949 1
 3899  6949  6950 1
 3900  6950  6951 1
 3901  6951  6952 1
 3902  6961  6962 1
 3903  6962  6963 1
 3904  6962  6977 1
 3905  6963  6968 1
 3906  6963  6964 1
 3907  6964  6965 1
 3908  6965  6966 1
 3909  6966  6967 1
 3910  6967  6968 1
 3911  6977  6978 1
 3912  6978  6979 1
 3913  6978  6993 1
 3914  6979  6984 1
 3915  6979  6980 1
 3916  6980  6981 1
 3917  6981  6982 1
 3918  6982  6983 1
 3919  6983  6984 1
 3920  6993  6994 1
 3921  6994  6995 1
 3922  6994  7009 1
 3923  6995  7000 1
 3924  6995  6996 1
 3925  6996  6997 1
 3926  6997  6998 1
 3927  6998  6999 1
 3928  6999  7000 1
 3929  7009  7010 1
 3930  7010  7011 1
 3931  7010  7025 1
 3932  7011  7016 1
 3933  7011  7012 1
 3934  7012  7013 1
 3935  7013  7014 1
 3936  7014  7015 1
 3937  7015  7016 1
 3938  7025  7026 1
 3939  7026  7027 1
 3940  7026  7041 1
 3941  7027  7032 1
 3942  7027  7028 1
 3943  7028  7029 1
 3944  7029  7030 1
 3945  7030  7031 1
 3946  7031  7032 1
 3947  7041  7042 1
 3948  7042  7043 1
 3949  7042  7057 1
 3950  7043  7048 1
 3951  7043  7044 1
 3952  7044  7045 1
 3953  7045  7046 1
 3954  7046  7047 1
 3955  7047  7048 1
 3956  7057  7058 1
 3957  7058  7059 1
 3958  7058  7073 1
 3959  7059  7064 1
 3960  7059  7060 1
 3961  7060  7061 1
 3962  7061  7062 1
 3963  7062  7063 1
 3964  7063  7064 1
 3965  7073  7074 1
 3966  7074  7075 1
 3967  7074  7089 1
 3968  7075  7080 1
 3969  7075  7076 1
 3970  7076  7077 1
 3971  7077  7078 1
 3972  7078  7079 1
 3973  7079  7080 1
 3974  7089  7090 1
 3975  7090  7091 1
 3976  7090  7105 1
 3977  7091  7096 1
 3978  7091  7092 1
 3979  7092  7093 1
 3980  7093  7094 1
 3981  7094  7095 1
 3982  7095  7096 1
 3983  7105  7106 1
 3984  7106  7107 1
 3985  7106  7121 1
 3986  7107  7112 1
 3987  7107  7108 1
 3988  7108  7109 1
 3989  7109  7110 1
 3990  7110  7111 1
 3991  7111  7112 1
 3992  7121  7122 1
 3993  7122  7123 1
 3994  7122  7137 1
 3995  7123  7128 1
 3996  7123  7124 1
 3997  7124  7125 1
 3998  7125  7126 1
 3999  7126  7127 1
 4000  7127  7128 1
 4001  7137  7138 1
 4002  7138  7139 1
 4003  7138  7153 1
 4004  7139  7144 1
 4005  7139  7140 1
 4006  7140  7141 1
 4007  7141  7142 1
 4008  7142  7143 1
 4009  7143  7144 1
 4010  7153  7154 1
 4011  7154  7155 1
 4012  7154  7169 1
 4013  7155  7160 1
 4014  7155  7156 1
 4015  7156  7157 1
 4016  7157  7158 1
 4017  7158  7159 1
 4018  7159  7160 1
 4019  7169  7170 1
 4020  7170  7171 1
 4021  7170  7185 1
 4022  7171  7176 1
 4023  7171  7172 1
 4024  7172  7173 1
 4025  7173  7174 1
 4026  7174  7175 1
 4027  7175  7176 1
 4028  7185  7186 1
 4029  7186  7187 1
 4030  7187  7192 1
 4031  7187  7188 1
 4032  7188  7189 1
 4033  7189  7190 1
 4034  7190  7191 1
 4035  7191  7192 1
 4036  7201  7202 1
 4037  7202  7203 1
 4038  7202  7217 1
 4039  7203  7208 1
 4040  7203  7204 1
 4041  7204  7205 1
 4042  7205  7206 1
 4043  7206  7207 1
 4044  7207  7208 1
 4045  7217  7218 1
 4046  7218  7219 1
 4047  7218  7233 1
 4048  7219  7224 1
 4049  7219  7220 1
 4050  7220  7221 1
 4051  7221  7222 1
 4052  7222  7223 1
 4053  7223  7224 1
 4054  7233  7234 1
 4055  7234  7235 1
 4056  7234  7249 1
 4057  7235  7240 1
 4058  7235  7236 1
 4059  7236  7237 1
 4060  7237  7238 1
 4061  7238  7239 1
 4062  7239  7240 1
 4063  7249  7250 1
 4064  7250  7251 1
 4065  7250  7265 1
 4066  7251  7256 1
 4067  7251  7252 1
 4068  7252  7253 1
 4069  7253  7254 1
 4070  7254  7255 1
 4071  7255  7256 1
 4072  7265  7266 1
 4073  7266  7267 1
 4074  7266  7281 1
 4075  7267  7272 1
 4076  7267  7268 1
 4077  7268  7269 1
 4078  7269  7270 1
 4079  7270  7271 1
 4080  7271  7272 1
 4081  7281  7282 1
 4082  7282  7283 1
 4083  7282  7297 1
 4084  7283  7288 1
 4085  7283  7284 1
 4086  7284  7285 1
 4087  7285  7286 1
 4088  7286  7287 1
 4089  7287  7288 1
 4090  7297  7298 1
 4091  7298  7299 1
 4092  7298  7313 1
 4093  7299  7304 1
 4094  7299  7300 1
 4095  7300  7301 1
 4096  7301  7302 1
 4097  7302  7303 1
 4098  7303  7304 1
 4099  7313  7314 1
 4100  7314  7315 1
 4101  7314  7329 1
 4102  7315  7320 1
 4103  7315  7316 1
 4104  7316  7317 1
 4105  7317  7318 1
 4106  7318  7319 1
 4107  7319  7320 1
 4108  7329  7330 1
 4109  7330  7331 1
 4110  7330  7345 1
 4111  7331  7336 1
 4112  7331  7332 1
 4113  7332  7333 1
 4114  7333  7334 1
 4115  7334  7335 1
 4116  7335  7336 1
 4117  7345  7346 1
 4118  7346  7347 1
 4119  7346  7361 1
 4120  7347  7352 1
 4121  7347  7348 1
 4122  7348  7349 1
 4123  7349  7350 1
 4124  7350  7351 1
 4125  7351  7352 1
 4126  7361  7362 1
 4127  7362  7363 1
 4128  7362  7377 1
 4129  7363  7368 1
 4130  7363  7364 1
 4131  7364  7365 1
 4132  7365  7366 1
 4133  7366  7367 1
 4134  7367  7368 1
 4135  7377  7378 1
 4136  7378  7379 1
 4137  7378  7393 1
 4138  7379  7384 1
 4139  7379  7380 1
 4140  7380  7381 1
 4141  7381  7382 1
 4142  7382  7383 1
 4143  7383  7384 1
 4144  7393  7394 1
 4145  7394  7395 1
 4146  7394  7409 1
 4147  7395  7400 1
 4148  7395  7396 1
 4149  7396  7397 1
 4150  7397  7398 1
 4151  7398  7399 1
 4152  7399  7400 1
 4153  7409  7410 1
 4154  7410  7411 1
 4155  7410  7425 1
 4156  7411  7416 1
 4157  7411  7412 1
 4158  7412  7413 1
 4159  7413  7414 1
 4160  7414  7415 1
 4161  7415  7416 1
 4162  7425  7426 1
 4163  7426  7427 1
 4164  7426  7441 1
 4165  7427  7432 1
 4166  7427  7428 1
 4167  7428  7429 1
 4168  7429  7430 1
 4169  7430  7431 1
 4170  7431  7432 1
 4171  7441  7442 1
 4172  7442  7443 1
 4173  7442  7457 1
 4174  7443  7448 1
 4175  7443  7444 1
 4176  7444  7445 1
 4177  7445  7446 1
 4178  7446  7447 1
 4179  7447  7448 1
 4180  7457  7458 1
 4181  7458  7459 1
 4182  7458  7473 1
 4183  7459  7464 1
 4184  7459  7460 1
 4185  7460  7461 1
 4186  7461  7462 1
 4187  7462  7463 1
 4188  7463  7464 1
 4189  7473  7474 1
 4190  7474  7475 1
 4191  7474  7489 1
 4192  7475  7480 1
 4193  7475  7476 1
 4194  7476  7477 1
 4195  7477  7478 1
 4196  7478  7479 1
 4197  7479  7480 1
 4198  7489  7490 1
 4199  7490  7491 1
 4200  7490  7505 1
 4201  7491  7496 1
 4202  7491  7492 1
 4203  7492  7493 1
 4204  7493  7494 1
 4205  7494  7495 1
 4206  7495  7496 1
 4207  7505  7506 1
 4208  7506  7507 1
 4209  7506  7521 1
 4210  7507  7512 1
 4211  7507  7508 1
 4212  7508  7509 1
 4213  7509  7510 1
 4214  7510  7511 1
 4215  7511  7512 1
 4216  7521  7522 1
 4217  7522  7523 1
 4218  7522  7537 1
 4219  7523  7528 1
 4220  7523  7524 1
 4221  7524  7525 1
 4222  7525  7526 1
 4223  7526  7527 1
 4224  7527  7528 1
 4225  7537  7538 1
 4226  7538  7539 1
 4227  7538  7553 1
 4228  7539  7544 1
 4229  7539  7540 1
 4230  7540  7541 1
 4231  7541  7542 1
 4232  7542  7543 1
 4233  7543  7544 1
 4234  7553  7554 1
 4235  7554  7555 1
 4236  7554  7569 1
 4237  7555  7560 1
 4238  7555  7556 1
 4239  7556  7557 1
 4240  7557  7558 1
 4241  7558  7559 1
 4242  7559  7560 1
 4243  7569  7570 1
 4244  7570  7571 1
 4245  7570  7585 1
 4246  7571  7576 1
 4247  7571  7572 1
 4248  7572  7573 1
 4249  7573  7574 1
 4250  7574  7575 1
 4251  7575  7576 1
 4252  7585  7586 1
 4253  7586  7587 1
 4254  7586  7601 1
 4255  7587  7592 1
 4256  7587  7588 1
 4257  7588  7589 1
 4258  7589  7590 1
 4259  7590  7591 1
 4260  7591  7592 1
 4261  7601  7602 1
 4262  7602  7603 1
 4263  7602  7617 1
 4264  7603  7608 1
 4265  7603  7604 1
 4266  7604  7605 1
 4267  7605  7606 1
 4268  7606  7607 1
 4269  7607  7608 1
 4270  7617  7618 1
 4271  7618  7619 1
 4272  7618  7633 1
 4273  7619  7624 1
 4274  7619  7620 1
 4275  7620  7621 1
 4276  7621  7622 1
 4277  7622  7623 1
 4278  7623  7624 1
 4279  7633  7634 1
 4280  7634  7635 1
 4281  7634  7649 1
 4282  7635  7640 1
 4283  7635  7636 1
 4284  7636  7637 1
 4285  7637  7638 1
 4286  7638  7639 1
 4287  7639  7640 1
 4288  7649  7650 1
 4289  7650  7651 1
 4290  7650  7665 1
 4291  7651  7656 1
 4292  7651  7652 1
 4293  7652  7653 1
 4294  7653  7654 1
 4295  7654  7655 1
 4296  7655  7656 1
 4297  7665  7666 1
 4298  7666  7667 1
 4299  7667  7672 1
 4300  7667  7668 1
 4301  7668  7669 1
 4302  7669  7670 1
 4303  7670  7671 1
 4304  7671  7672 1
 4305  7681  7682 1
 4306  7682  7683 1
 4307  7682  7697 1
 4308  7683  7688 1
 4309  7683  7684 1
 4310  7684  7685 1
 4311  7685  7686 1
 4312  7686  7687 1
 4313  7687  7688 1
 4314  7697  7698 1
 4315  7698  7699 1
 4316  7698  7713 1
 4317  7699  7704 1
 4318  7699  7700 1
 4319  7700  7701 1
 4320  7701  7702 1
 4321  7702  7703 1
 4322  7703  7704 1
 4323  7713  7714 1
 4324  7714  7715 1
 4325  7714  7729 1
 4326  7715  7720 1
 4327  7715  7716 1
 4328  7716  7717 1
 4329  7717  7718 1
 4330  7718  7719 1
 4331  7719  7720 1
 4332  7729  7730 1
 4333  7730  7731 1
 4334  7730  7745 1
 4335  7731  7736 1
 4336  7731  7732 1
 4337  7732  7733 1
 4338  7733  7734 1
 4339  7734  7735 1
 4340  7735  7736 1
 4341  7745  7746 1
 4342  7746  7747 1
 4343  7746  7761 1
 4344  7747  7752 1
 4345  7747  7748 1
 4346  7748  7749 1
 4347  7749  7750 1
 4348  7750  7751 1
 4349  7751  7752 1
 4350  7761  7762 1
 4351  7762  7763 1
 4352  7762  7777 1
 4353  7763  7768 1
 4354  7763  7764 1
 4355  7764  7765 1
 4356  7765  7766 1
 4357  7766  7767 1
 4358  7767  7768 1
 4359  7777  7778 1
 4360  7778  7779 1
 4361  7778  7793 1
 4362  7779  7784 1
 4363  7779  7780 1
 4364  7780  7781 1
 4365  7781  7782 1
 4366  7782  7783 1
 4367  7783  7784 1
 4368  7793  7794 1
 4369  7794  7795 1
 4370  7794  7809 1
 4371  7795  7800 1
 4372  7795  7796 1
 4373  7796  7797 1
 4374  7797  7798 1
 4375  7798  7799 1
 4376  7799  7800 1
 4377  7809  7810 1
 4378  7810  7811 1
 4379  7810  7825 1
 4380  7811  7816 1
 4381  7811  7812 1
 4382  7812  7813 1
 4383  7813  7814 1
 4384  7814  7815 1
 4385  7815  7816 1
 4386  7825  7826 1
 4387  7826  7827 1
 4388  7826  7841 1
 4389  7827  7832 1
 4390  7827  7828 1
 4391  7828  7829 1
 4392  7829  7830 1
 4393  7830  7831 1
 4394  7831  7832 1
 4395  7841  7842 1
 4396  7842  7843 1
 4397  7842  7857 1
 4398  7843  7848 1
 4399  7843  7844 1
 4400  7844  7845 1
 4401  7845  7846 1
 4402  7846  7847 1
 4403  7847  7848 1
 4404  7857  7858 1
 4405  7858  7859 1
 4406  7858  7873 1
 4407  7859  7864 1
 4408  7859  7860 1
 4409  7860  7861 1
 4410  7861  7862 1
 4411  7862  7863 1
 4412  7863  7864 1
 4413  7873  7874 1
 4414  7874  7875 1
 4415  7874  7889 1
 4416  7875  7880 1
 4417  7875  7876 1
 4418  7876  7877 1
 4419  7877  7878 1
 4420  7878  7879 1
 4421  7879  7880 1
 4422  7889  7890 1
 4423  7890  7891 1
 4424  7890  7905 1
 4425  7891  7896 1
 4426  7891  7892 1
 4427  7892  7893 1
 4428  7893  7894 1
 4429  7894  7895 1
 4430  7895  7896 1
 4431  7905  7906 1
 4432  7906  7907 1
 4433  7906  7921 1
 4434  7907  7912 1
 4435  7907  7908 1
 4436  7908  7909 1
 4437  7909  7910 1
 4438  7910  7911 1
 4439  7911  7912 1
 4440  7921  7922 1
 4441  7922  7923 1
 4442  7922  7937 1
 4443  7923  7928 1
 4444  7923  7924 1
 4445  7924  7925 1
 4446  7925  7926 1
 4447  7926  7927 1
 4448  7927  7928 1
 4449  7937  7938 1
 4450  7938  7939 1
 4451  7938  7953 1
 4452  7939  7944 1
 4453  7939  7940 1
 4454  7940  7941 1
 4455  7941  7942 1
 4456  7942  7943 1
 4457  7943  7944 1
 4458  7953  7954 1
 4459  7954  7955 1
 4460  7954  7969 1
 4461  7955  7960 1
 4462  7955  7956 1
 4463  7956  7957 1
 4464  7957  7958 1
 4465  7958  7959 1
 4466  7959  7960 1
 4467  7969  7970 1
 4468  7970  7971 1
 4469  7970  7985 1
 4470  7971  7976 1
 4471  7971  7972 1
 4472  7972  7973 1
 4473  7973  7974 1
 4474  7974  7975 1
 4475  7975  7976 1
 4476  7985  7986 1
 4477  7986  7987 1
 4478  7986  8001 1
 4479  7987  7992 1
 4480  7987  7988 1
 4481  7988  7989 1
 4482  7989  7990 1
 4483  7990  7991 1
 4484  7991  7992 1
 4485  8001  8002 1
 4486  8002  8003 1
 4487  8002  8017 1
 4488  8003  8008 1
 4489  8003  8004 1
 4490  8004  8005 1
 4491  8005  8006 1
 4492  8006  8007 1
 4493  8007  8008 1
 4494  8017  8018 1
 4495  8018  8019 1
 4496  8018  8033 1
 4497  8019  8024 1
 4498  8019  8020 1
 4499  8020  8021 1
 4500  8021  8022 1
 4501  8022  8023 1
 4502  8023  8024 1
 4503  8033  8034 1
 4504  8034  8035 1
 4505  8034  8049 1
 4506  8035  8040 1
 4507  8035  8036 1
 4508  8036  8037 1
 4509  8037  8038 1
 4510  8038  8039 1
 4511  8039  8040 1
 4512  8049  8050 1
 4513  8050  8051 1
 4514  8050  8065 1
 4515  8051  8056 1
 4516  8051  8052 1
 4517  8052  8053 1
 4518  8053  8054 1
 4519  8054  8055 1
 4520  8055  8056 1
 4521  8065  8066 1
 4522  8066  8067 1
 4523  8066  8081 1
 4524  8067  8072 1
 4525  8067  8068 1
 4526  8068  8069 1
 4527  8069  8070 1
 4528  8070  8071 1
 4529  8071  8072 1
 4530  8081  8082 1
 4531  8082  8083 1
 4532  8082  8097 1
 4533  8083  8088 1
 4534  8083  8084 1
 4535  8084  8085 1
 4536  8085  8086 1
 4537  8086  8087 1
 4538  8087  8088 1
 4539  8097  8098 1
 4540  8098  8099 1
 4541  8098  8113 1
 4542  8099  8104 1
 4543  8099  8100 1
 4544  8100  8101 1
 4545  8101  8102 1
 4546  8102  8103 1
 4547  8103  8104 1
 4548  8113  8114 1
 4549  8114  8115 1
 4550  8114  8129 1
 4551  8115  8120 1
 4552  8115  8116 1
 4553  8116  8117 1
 4554  8117  8118 1
 4555  8118  8119 1
 4556  8119  8120 1
 4557  8129  8130 1
 4558  8130  8131 1
 4559  8130  8145 1
 4560  8131  8136 1
 4561  8131  8132 1
 4562  8132  8133 1
 4563  8133  8134 1
 4564  8134  8135 1
 4565  8135  8136 1
 4566  8145  8146 1
 4567  8146  8147 1
 4568  8147  8152 1
 4569  8147  8148 1
 4570  8148  8149 1
 4571  8149  8150 1
 4572  8150  8151 1
 4573  8151  8152 1
 4574  8161  8162 1
 4575  8162  8163 1
 4576  8162  8177 1
 4577  8163  8168 1
 4578  8163  8164 1
 4579  8164  8165 1
 4580  8165  8166 1
 4581  8166  8167 1
 4582  8167  8168 1
 4583  8177  8178 1
 4584  8178  8179 1
 4585  8178  8193 1
 4586  8179  8184 1
 4587  8179  8180 1
 4588  8180  8181 1
 4589  8181  8182 1
 4590  8182  8183 1
 4591  8183  8184 1
 4592  8193  8194 1
 4593  8194  8195 1
 4594  8194  8209 1
 4595  8195  8200 1
 4596  8195  8196 1
 4597  8196  8197 1
 4598  8197  8198 1
 4599  8198  8199 1
 4600  8199  8200 1
 4601  8209  8210 1
 4602  8210  8211 1
 4603  8210  8225 1
 4604  8211  8216 1
 4605  8211  8212 1
 4606  8212  8213 1
 4607  8213  8214 1
 4608  8214  8215 1
 4609  8215  8216 1
 4610  8225  8226 1
 4611  8226  8227 1
 4612  8226  8241 1
 4613  8227  8232 1
 4614  8227  8228 1
 4615  8228  8229 1
 4616  8229  8230 1
 4617  8230  8231 1
 4618  8231  8232 1
 4619  8241  8242 1
 4620  8242  8243 1
 4621  8242  8257 1
 4622  8243  8248 1
 4623  8243  8244 1
 4624  8244  8245 1
 4625  8245  8246 1
 4626  8246  8247 1
 4627  8247  8248 1
 4628  8257  8258 1
 4629  8258  8259 1
 4630  8258  8273 1
 4631  8259  8264 1
 4632  8259  8260 1
 4633  8260  8261 1
 4634  8261  8262 1
 4635  8262  8263 1
 4636  8263  8264 1
 4637  8273  8274 1
 4638  8274  8275 1
 4639  8274  8289 1
 4640  8275  8280 1
 4641  8275  8276 1
 4642  8276  8277 1
 4643  8277  8278 1
 4644  8278  8279 1
 4645  8279  8280 1
 4646  8289  8290 1
 4647  8290  8291 1
 4648  8290  8305 1
 4649  8291  8296 1
 4650  8291  8292 1
 4651  8292  8293 1
 4652  8293  8294 1
 4653  8294  8295 1
 4654  8295  8296 1
 4655  8305  8306 1
 4656  8306  8307 1
 4657  8306  8321 1
 4658  8307  8312 1
 4659  8307  8308 1
 4660  8308  8309 1
 4661  8309  8310 1
 4662  8310  8311 1
 4663  8311  8312 1
 4664  8321  8322 1
 4665  8322  8323 1
 4666  8322  8337 1
 4667  8323  8328 1
 4668  8323  8324 1
 4669  8324  8325 1
 4670  8325  8326 1
 4671  8326  8327 1
 4672  8327  8328 1
 4673  8337  8338 1
 4674  8338  8339 1
 4675  8338  8353 1
 4676  8339  8344 1
 4677  8339  8340 1
 4678  8340  8341 1
 4679  8341  8342 1
 4680  8342  8343 1
 4681  8343  8344 1
 4682  8353  8354 1
 4683  8354  8355 1
 4684  8354  8369 1
 4685  8355  8360 1
 4686  8355  8356 1
 4687  8356  8357 1
 4688  8357  8358 1
 4689  8358  8359 1
 4690  8359  8360 1
 4691  8369  8370 1
 4692  8370  8371 1
 4693  8370  8385 1
 4694  8371  8376 1
 4695  8371  8372 1
 4696  8372  8373 1
 4697  8373  8374 1
 4698  8374  8375 1
 4699  8375  8376 1
 4700  8385  8386 1
 4701  8386  8387 1
 4702  8386  8401 1
 4703  8387  8392 1
 4704  8387  8388 1
 4705  8388  8389 1
 4706  8389  8390 1
 4707  8390  8391 1
 4708  8391  8392 1
 4709  8401  8402 1
 4710  8402  8403 1
 4711  8402  8417 1
 4712  8403  8408 1
 4713  8403  8404 1
 4714  8404  8405 1
 4715  8405  8406 1
 4716  8406  8407 1
 4717  8407  8408 1
 4718  8417  8418 1
 4719  8418  8419 1
 4720  8418  8433 1
 4721  8419  8424 1
 4722  8419  8420 1
 4723  8420  8421 1
 4724  8421  8422 1
 4725  8422  8423 1
 4726  8423  8424 1
 4727  8433  8434 1
 4728  8434  8435 1
 4729  8434  8449 1
 4730  8435  8440 1
 4731  8435  8436 1
 4732  8436  8437 1
 4733  8437  8438 1
 4734  8438  8439 1
 4735  8439  8440 1
 4736  8449  8450 1
 4737  8450  8451 1
 4738  8450  8465 1
 4739  8451  8456 1
 4740  8451  8452 1
 4741  8452  8453 1
 4742  8453  8454 1
 4743  8454  8455 1
 4744  8455  8456 1
 4745  8465  8466 1
 4746  8466  8467 1
 4747  8466  8481 1
 4748  8467  8472 1
 4749  8467  8468 1
 4750  8468  8469 1
 4751  8469  8470 1
 4752  8470  8471 1
 4753  8471  8472 1
 4754  8481  8482 1
 4755  8482  8483 1
 4756  8482  8497 1
 4757  8483  8488 1
 4758  8483  8484 1
 4759  8484  8485 1
 4760  8485  8486 1
 4761  8486  8487 1
 4762  8487  8488 1
 4763  8497  8498 1
 4764  8498  8499 1
 4765  8498  8513 1
 4766  8499  8504 1
 4767  8499  8500 1
 4768  8500  8501 1
 4769  8501  8502 1
 4770  8502  8503 1
 4771  8503  8504 1
 4772  8513  8514 1
 4773  8514  8515 1
 4774  8514  8529 1
 4775  8515  8520 1
 4776  8515  8516 1
 4777  8516  8517 1
 4778  8517  8518 1
 4779  8518  8519 1
 4780  8519  8520 1
 4781  8529  8530 1
 4782  8530  8531 1
 4783  8530  8545 1
 4784  8531  8536 1
 4785  8531  8532 1
 4786  8532  8533 1
 4787  8533  8534 1
 4788  8534  8535 1
 4789  8535  8536 1
 4790  8545  8546 1
 4791  8546  8547 1
 4792  8546  8561 1
 4793  8547  8552 1
 4794  8547  8548 1
 4795  8548  8549 1
 4796  8549  8550 1
 4797  8550  8551 1
 4798  8551  8552 1
 4799  8561  8562 1
 4800  8562  8563 1
 4801  8562  8577 1
 4802  8563  8568 1
 4803  8563  8564 1
 4804  8564  8565 1
 4805  8565  8566 1
 4806  8566  8567 1
 4807  8567  8568 1
 4808  8577  8578 1
 4809  8578  8579 1
 4810  8578  8593 1
 4811  8579  8584 1
 4812  8579  8580 1
 4813  8580  8581 1
 4814  8581  8582 1
 4815  8582  8583 1
 4816  8583  8584 1
 4817  8593  8594 1
 4818  8594  8595 1
 4819  8594  8609 1
 4820  8595  8600 1
 4821  8595  8596 1
 4822  8596  8597 1
 4823  8597  8598 1
 4824  8598  8599 1
 4825  8599  8600 1
 4826  8609  8610 1
 4827  8610  8611 1
 4828  8610  8625 1
 4829  8611  8616 1
 4830  8611  8612 1
 4831  8612  8613 1
 4832  8613  8614 1
 4833  8614  8615 1
 4834  8615  8616 1
 4835  8625  8626 1
 4836  8626  8627 1
 4837  8627  8632 1
 4838  8627  8628 1
 4839  8628  8629 1
 4840  8629  8630 1
 4841  8630  8631 1
 4842  8631  8632 1
 4843  8641  8642 1
 4844  8642  8643 1
 4845  8642  8657 1
 4846  8643  8648 1
 4847  8643  8644 1
 4848  8644  8645 1
 4849  8645  8646 1
 4850  8646  8647 1
 4851  8647  8648 1
 4852  8657  8658 1
 4853  8658  8659 1
 4854  8658  8673 1
 4855  8659  8664 1
 4856  8659  8660 1
 4857  8660  8661 1
 4858  8661  8662 1
 4859  8662  8663 1
 4860  8663  8664 1
 4861  8673  8674 1
 4862  8674  8675 1
 4863  8674  8689 1
 4864  8675  8680 1
 4865  8675  8676 1
 4866  8676  8677 1
 4867  8677  8678 1
 4868  8678  8679 1
 4869  8679  8680 1
 4870  8689  8690 1
 4871  8690  8691 1
 4872  8690  8705 1
 4873  8691  8696 1
 4874  8691  8692 1
 4875  8692  8693 1
 4876  8693  8694 1
 4877  8694  8695 1
 4878  8695  8696 1
 4879  8705  8706 1
 4880  8706  8707 1
 4881  8706  8721 1
 4882  8707  8712 1
 4883  8707  8708 1
 4884  8708  8709 1
 4885  8709  8710 1
 4886  8710  8711 1
 4887  8711  8712 1
 4888  8721  8722 1
 4889  8722  8723 1
 4890  8722  8737 1
 4891  8723  8728 1
 4892  8723  8724 1
 4893  8724  8725 1
 4894  8725  8726 1
 4895  8726  8727 1
 4896  8727  8728 1
 4897  8737  8738 1
 4898  8738  8739 1
 4899  8738  8753 1
 4900  8739  8744 1
 4901  8739  8740 1
 4902  8740  8741 1
 4903  8741  8742 1
 4904  8742  8743 1
 4905  8743  8744 1
 4906  8753  8754 1
 4907  8754  8755 1
 4908  8754  8769 1
 4909  8755  8760 1
 4910  8755  8756 1
 4911  8756  8757 1
 4912  8757  8758 1
 4913  8758  8759 1
 4914  8759  8760 1
 4915  8769  8770 1
 4916  8770  8771 1
 4917  8770  8785 1
 4918  8771  8776 1
 4919  8771  8772 1
 4920  8772  8773 1
 4921  8773  8774 1
 4922  8774  8775 1
 4923  8775  8776 1
 4924  8785  8786 1
 4925  8786  8787 1
 4926  8786  8801 1
 4927  8787  8792 1
 4928  8787  8788 1
 4929  8788  8789 1
 4930  8789  8790 1
 4931  8790  8791 1
 4932  8791  8792 1
 4933  8801  8802 1
 4934  8802  8803 1
 4935  8802  8817 1
 4936  8803  8808 1
 4937  8803  8804 1
 4938  8804  8805 1
 4939  8805  8806 1
 4940  8806  8807 1
 4941  8807  8808 1
 4942  8817  8818 1
 4943  8818  8819 1
 4944  8818  8833 1
 4945  8819  8824 1
 4946  8819  8820 1
 4947  8820  8821 1
 4948  8821  8822 1
 4949  8822  8823 1
 4950  8823  8824 1
 4951  8833  8834 1
 4952  8834  8835 1
 4953  8834  8849 1
 4954  8835  8840 1
 4955  8835  8836 1
 4956  8836  8837 1
 4957  8837  8838 1
 4958  8838  8839 1
 4959  8839  8840 1
 4960  8849  8850 1
 4961  8850  8851 1
 4962  8850  8865 1
 4963  8851  8856 1
 4964  8851  8852 1
 4965  8852  8853 1
 4966  8853  8854 1
 4967  8854  8855 1
 4968  8855  8856 1
 4969  8865  8866 1
 4970  8866  8867 1
 4971  8866  8881 1
 4972  8867  8872 1
 4973  8867  8868 1
 4974  8868  8869 1
 4975  8869  8870 1
 4976  8870  8871 1
 4977  8871  8872 1
 4978  8881  8882 1
 4979  8882  8883 1
 4980  8882  8897 1
 4981  8883  8888 1
 4982  8883  8884 1
 4983  8884  8885 1
 4984  8885  8886 1
 4985  8886  8887 1
 4986  8887  8888 1
 4987  8897  8898 1
 4988  8898  8899 1
 4989  8898  8913 1
 4990  8899  8904 1
 4991  8899  8900 1
 4992  8900  8901 1
 4993  8901  8902 1
 4994  8902  8903 1
 4995  8903  8904 1
 4996  8913  8914 1
 4997  8914  8915 1
 4998  8914  8929 1
 4999  8915  8920 1
 5000  8915  8916 1
 5001  8916  8917 1
 5002  8917  8918 1
 5003  8918  8919 1
 5004  8919  8920 1
 5005  8929  8930 1
 5006  8930  8931 1
 5007  8930  8945 1
 5008  8931  8936 1
 5009  8931  8932 1
 5010  8932  8933 1
 5011  8933  8934 1
 5012  8934  8935 1
 5013  8935  8936 1
 5014  8945  8946 1
 5015  8946  8947 1
 5016  8946  8961 1
 5017  8947  8952 1
 5018  8947  8948 1
 5019  8948  8949 1
 5020  8949  8950 1
 5021  8950  8951 1
 5022  8951  8952 1
 5023  8961  8962 1
 5024  8962  8963 1
 5025  8962  8977 1
 5026  8963  8968 1
 5027  8963  8964 1
 5028  8964  8965 1
 5029  8965  8966 1
 5030  8966  8967 1
 5031  8967  8968 1
 5032  8977  8978 1
 5033  8978  8979 1
 5034  8978  8993 1
 5035  8979  8984 1
 5036  8979  8980 1
 5037  8980  8981 1
 5038  8981  8982 1
 5039  8982  8983 1
 5040  8983  8984 1
 5041  8993  8994 1
 5042  8994  8995 1
 5043  8994  9009 1
 5044  8995  9000 1
 5045  8995  8996 1
 5046  8996  8997 1
 5047  8997  8998 1
 5048  8998  8999 1
 5049  8999  9000 1
 5050  9009  9010 1
 5051  9010  9011 1
 5052  9010  9025 1
 5053  9011  9016 1
 5054  9011  9012 1
 5055  9012  9013 1
 5056  9013  9014 1
 5057  9014  9015 1
 5058  9015  9016 1
 5059  9025  9026 1
 5060  9026  9027 1
 5061  9026  9041 1
 5062  9027  9032 1
 5063  9027  9028 1
 5064  9028  9029 1
 5065  9029  9030 1
 5066  9030  9031 1
 5067  9031  9032 1
 5068  9041  9042 1
 5069  9042  9043 1
 5070  9042  9057 1
 5071  9043  9048 1
 5072  9043  9044 1
 5073  9044  9045 1
 5074  9045  9046 1
 5075  9046  9047 1
 5076  9047  9048 1
 5077  9057  9058 1
 5078  9058  9059 1
 5079  9058  9073 1
 5080  9059  9064 1
 5081  9059  9060 1
 5082  9060  9061 1
 5083  9061  9062 1
 5084  9062  9063 1
 5085  9063  9064 1
 5086  9073  9074 1
 5087  9074  9075 1
 5088  9074  9089 1
 5089  9075  9080 1
 5090  9075  9076 1
 5091  9076  9077 1
 5092  9077  9078 1
 5093  9078  9079 1
 5094  9079  9080 1
 5095  9089  9090 1
 5096  9090  9091 1
 5097  9090  9105 1
 5098  9091  9096 1
 5099  9091  9092 1
 5100  9092  9093 1
 5101  9093  9094 1
 5102  9094  9095 1
 5103  9095  9096 1
 5104  9105  9106 1
 5105  9106  9107 1
 5106  9107  9112 1
 5107  9107  9108 1
 5108  9108  9109 1
 5109  9109  9110 1
 5110  9110  9111 1
 5111  9111  9112 1
 5112  9121  9122 1
 5113  9122  9123 1
 5114  9122  9137 1
 5115  9123  9128 1
 5116  9123  9124 1
 5117  9124  9125 1
 5118  9125  9126 1
 5119  9126  9127 1
 5120  9127  9128 1
 5121  9137  9138 1
 5122  9138  9139 1
 5123  9138  9153 1
 5124  9139  9144 1
 5125  9139  9140 1
 5126  9140  9141 1
 5127  9141  9142 1
 5128  9142  9143 1
 5129  9143  9144 1
 5130  9153  9154 1
 5131  9154  9155 1
 5132  9154  9169 1
 5133  9155  9160 1
 5134  9155  9156 1
 5135  9156  9157 1
 5136  9157  9158 1
 5137  9158  9159 1
 5138  9159  9160 1
 5139  9169  9170 1
 5140  9170  9171 1
 5141  9170  9185 1
 5142  9171  9176 1
 5143  9171  9172 1
 5144  9172  9173 1
 5145  9173  9174 1
 5146  9174  9175 1
 5147  9175  9176 1
 5148  9185  9186 1
 5149  9186  9187 1
 5150  9186  9201 1
 5151  9187  9192 1
 5152  9187  9188 1
 5153  9188  9189 1
 5154  9189  9190 1
 5155  9190  9191 1
 5156  9191  9192 1
 5157  9201  9202 1
 5158  9202  9203 1
 5159  9202  9217 1
 5160  9203  9208 1
 5161  9203  9204 1
 5162  9204  9205 1
 5163  9205  9206 1
 5164  9206  9207 1
 5165  9207  9208 1
 5166  9217  9218 1
 5167  9218  9219 1
 5168  9218  9233 1
 5169  9219  9224 1
 5170  9219  9220 1
 5171  9220  9221 1
 5172  9221  9222 1
 5173  9222  9223 1
 5174  9223  9224 1
 5175  9233  9234 1
 5176  9234  9235 1
 5177  9234  9249 1
 5178  9235  9240 1
 5179  9235  9236 1
 5180  9236  9237 1
 5181  9237  9238 1
 5182  9238  9239 1
 5183  9239  9240 1
 5184  9249  9250 1
 5185  9250  9251 1
 5186  9250  9265 1
 5187  9251  9256 1
 5188  9251  9252 1
 5189  9252  9253 1
 5190  9253  9254 1
 5191  9254  9255 1
 5192  9255  9256 1
 5193  9265  9266 1
 5194  9266  9267 1
 5195  9266  9281 1
 5196  9267  9272 1
 5197  9267  9268 1
 5198  9268  9269 1
 5199  9269  9270 1
 5200  9270  9271 1
 5201  9271  9272 1
 5202  9281  9282 1
 5203  9282  9283 1
 5204  9282  9297 1
 5205  9283  9288 1
 5206  9283  9284 1
 5207  9284  9285 1
 5208  9285  9286 1
 5209  9286  9287 1
 5210  9287  9288 1
 5211  9297  9298 1
 5212  9298  9299 1
 5213  9298  9313 1
 5214  9299  9304 1
 5215  9299  9300 1
 5216  9300  9301 1
 5217  9301  9302 1
 5218  9302  9303 1
 5219  9303  9304 1
 5220  9313  9314 1
 5221  9314  9315 1
 5222  9314  9329 1
 5223  9315  9320 1
 5224  9315  9316 1
 5225  9316  9317 1
 5226  9317  9318 1
 5227  9318  9319 1
 5228  9319  9320 1
 5229  9329  9330 1
 5230  9330  9331 1
 5231  9330  9345 1
 5232  9331  9336 1
 5233  9331  9332 1
 5234  9332  9333 1
 5235  9333  9334 1
 5236  9334  9335 1
 5237  9335  9336 1
 5238  9345  9346 1
 5239  9346  9347 1
 5240  9346  9361 1
 5241  9347  9352 1
 5242  9347  9348 1
 5243  9348  9349 1
 5244  9349  9350 1
 5245  9350  9351 1
 5246  9351  9352 1
 5247  9361  9362 1
 5248  9362  9363 1
 5249  9362  9377 1
 5250  9363  9368 1
 5251  9363  9364 1
 5252  9364  9365 1
 5253  9365  9366 1
 5254  9366  9367 1
 5255  9367  9368 1
 5256  9377  9378 1
 5257  9378  9379 1
 5258  9378  9393 1
 5259  9379  9384 1
 5260  9379  9380 1
 5261  9380  9381 1
 5262  9381  9382 1
 5263  9382  9383 1
 5264  9383  9384 1
 5265  9393  9394 1
 5266  9394  9395 1
 5267  9394  9409 1
 5268  9395  9400 1
 5269  9395  9396 1
 5270  9396  9397 1
 5271  9397  9398 1
 5272  9398  9399 1
 5273  9399  9400 1
 5274  9409  9410 1
 5275  9410  9411 1
 5276  9410  9425 1
 5277  9411  9416 1
 5278  9411  9412 1
 5279  9412  9413 1
 5280  9413  9414 1
 5281  9414  9415 1
 5282  9415  9416 1
 5283  9425  9426 1
 5284  9426  9427 1
 5285  9426  9441 1
 5286  9427  9432 1
 5287  9427  9428 1
 5288  9428  9429 1
 5289  9429  9430 1
 5290  9430  9431 1
 5291  9431  9432 1
 5292  9441  9442 1
 5293  9442  9443 1
 5294  9442  9457 1
 5295  9443  9448 1
 5296  9443  9444 1
 5297  9444  9445 1
 5298  9445  9446 1
 5299  9446  9447 1
 5300  9447  9448 1
 5301  9457  9458 1
 5302  9458  9459 1
 5303  9458  9473 1
 5304  9459  9464 1
 5305  9459  9460 1
 5306  9460  9461 1
 5307  9461  9462 1
 5308  9462  9463 1
 5309  9463  9464 1
 5310  9473  9474 1
 5311  9474  9475 1
 5312  9474  9489 1
 5313  9475  9480 1
 5314  9475  9476 1
 5315  9476  9477 1
 5316  9477  9478 1
 5317  9478  9479 1
 5318  9479  9480 1
 5319  9489  9490 1
 5320  9490  9491 1
 5321  9490  9505 1
 5322  9491  9496 1
 5323  9491  9492 1
 5324  9492  9493 1
 5325  9493  9494 1
 5326  9494  9495 1
 5327  9495  9496 1
 5328  9505  9506 1
 5329  9506  9507 1
 5330  9506  9521 1
 5331  9507  9512 1
 5332  9507  9508 1
 5333  9508  9509 1
 5334  9509  9510 1
 5335  9510  9511 1
 5336  9511  9512 1
 5337  9521  9522 1
 5338  9522  9523 1
 5339  9522  9537 1
 5340  9523  9528 1
 5341  9523  9524 1
 5342  9524  9525 1
 5343  9525  9526 1
 5344  9526  9527 1
 5345  9527  9528 1
 5346  9537  9538 1
 5347  9538  9539 1
 5348  9538  9553 1
 5349  9539  9544 1
 5350  9539  9540 1
 5351  9540  9541 1
 5352  9541  9542 1
 5353  9542  9543 1
 5354  9543  9544 1
 5355  9553  9554 1
 5356  9554  9555 1
 5357  9554  9569 1
 5358  9555  9560 1
 5359  9555  9556 1
 5360  9556  9557 1
 5361  9557  9558 1
 5362  9558  9559 1
 5363  9559  9560 1
 5364  9569  9570 1
 5365  9570  9571 1
 5366  9570  9585 1
 5367  9571  9576 1
 5368  9571  9572 1
 5369  9572  9573 1
 5370  9573  9574 1
 5371  9574  9575 1
 5372  9575  9576 1
 5373  9585  9586 1
 5374  9586  9587 1
 5375  9587  9592 1
 5376  9587  9588 1
 5377  9588  9589 1
 5378  9589  9590 1
 5379  9590  9591 1
 5380  9591  9592 1
 5381  9601  9602 1
 5382  9602  9603 1
 5383  9602  9617 1
 5384  9603  9608 1
 5385  9603  9604 1
 5386  9604  9605 1
 5387  9605  9606 1
 5388  9606  9607 1
 5389  9607  9608 1
 5390  9617  9618 1
 5391  9618  9619 1
 5392  9618  9633 1
 5393  9619  9624 1
 5394  9619  9620 1
 5395  9620  9621 1
 5396  9621  9622 1
 5397  9622  9623 1
 5398  9623  9624 1
 5399  9633  9634 1
 5400  9634  9635 1
 5401  9634  9649 1
 5402  9635  9640 1
 5403  9635  9636 1
 5404  9636  9637 1
 5405  9637  9638 1
 5406  9638  9639 1
 5407  9639  9640 1
 5408  9649  9650 1
 5409  9650  9651 1
 5410  9650  9665 1
 5411  9651  9656 1
 5412  9651  9652 1
 5413  9652  9653 1
 5414  9653  9654 1
 5415  9654  9655 1
 5416  9655  9656 1
 5417  9665  9666 1
 5418  9666  9667 1
 5419  9666  9681 1
 5420  9667  9672 1
 5421  9667  9668 1
 5422  9668  9669 1
 5423  9669  9670 1
 5424  9670  9671 1
 5425  9671  9672 1
 5426  9681  9682 1
 5427  9682  9683 1
 5428  9682  9697 1
 5429  9683  9688 1
 5430  9683  9684 1
 5431  9684  9685 1
 5432  9685  9686 1
 5433  9686  9687 1
 5434  9687  9688 1
 5435  9697  9698 1
 5436  9698  9699 1
 5437  9698  9713 1
 5438  9699  9704 1
 5439  9699  9700 1
 5440  9700  9701 1
 5441  9701  9702 1
 5442  9702  9703 1
 5443  9703  9704 1
 5444  9713  9714 1
 5445  9714  9715 1
 5446  9714  9729 1
 5447  9715  9720 1
 5448  9715  9716 1
 5449  9716  9717 1
 5450  9717  9718 1
 5451  9718  9719 1
 5452  9719  9720 1
 5453  9729  9730 1
 5454  9730  9731 1
 5455  9730  9745 1
 5456  9731  9736 1
 5457  9731  9732 1
 5458  9732  9733 1
 5459  9733  9734 1
 5460  9734  9735 1
 5461  9735  9736 1
 5462  9745  9746 1
 5463  9746  9747 1
 5464  9746  9761 1
 5465  9747  9752 1
 5466  9747  9748 1
 5467  9748  9749 1
 5468  9749  9750 1
 5469  9750  9751 1
 5470  9751  9752 1
 5471  9761  9762 1
 5472  9762  9763 1
 5473  9762  9777 1
 5474  9763  9768 1
 5475  9763  9764 1
 5476  9764  9765 1
 5477  9765  9766 1
 5478  9766  9767 1
 5479  9767  9768 1
 5480  9777  9778 1
 5481  9778  9779 1
 5482  9778  9793 1
 5483  9779  9784 1
 5484  9779  9780 1
 5485  9780  9781 1
 5486  9781  9782 1
 5487  9782  9783 1
 5488  9783  9784 1
 5489  9793  9794 1
 5490  9794  9795 1
 5491  9794  9809 1
 5492  9795  9800 1
 5493  9795  9796 1
 5494  9796  9797 1
 5495  9797  9798 1
 5496  9798  9799 1
 5497  9799  9800 1
 5498  9809  9810 1
 5499  9810  9811 1
 5500  9810  9825 1
 5501  9811  9816 1
 5502  9811  9812 1
 5503  9812  9813 1
 5504  9813  9814 1
 5505  9814  9815 1
 5506  9815  9816 1
 5507  9825  9826 1
 5508  9826  9827 1
 5509  9826  9841 1
 5510  9827  9832 1
 5511  9827  9828 1
 5512  9828  9829 1
 5513  9829  9830 1
 5514  9830  9831 1
 5515  9831  9832 1
 5516  9841  9842 1
 5517  9842  9843 1
 5518  9842  9857 1
 5519  9843  9848 1
 5520  9843  9844 1
 5521  9844  9845 1
 5522  9845  9846 1
 5523  9846  9847 1
 5524  9847  9848 1
 5525  9857  9858 1
 5526  9858  9859 1
 5527  9858  9873 1
 5528  9859  9864 1
 5529  9859  9860 1
 5530  9860  9861 1
 5531  9861  9862 1
 5532  9862  9863 1
 5533  9863  9864 1
 5534  9873  9874 1
 5535  9874  9875 1
 5536  9874  9889 1
 5537  9875  9880 1
 5538  9875  9876 1
 5539  9876  9877 1
 5540  9877  9878 1
 5541  9878  9879 1
 5542  9879  9880 1
 5543  9889  9890 1
 5544  9890  9891 1
 5545  9890  9905 1
 5546  9891  9896 1
 5547  9891  9892 1
 5548  9892  9893 1
 5549  9893  9894 1
 5550  9894  9895 1
 5551  9895  9896 1
 5552  9905  9906 1
 5553  9906  9907 1
 5554  9906  9921 1
 5555  9907  9912 1
 5556  9907  9908 1
 5557  9908  9909 1
 5558  9909  9910 1
 5559  9910  9911 1
 5560  9911  9912 1
 5561  9921  9922 1
 5562  9922  9923 1
 5563  9922  9937 1
 5564  9923  9928 1
 5565  9923  9924 1
 5566  9924  9925 1
 5567  9925  9926 1
 5568  9926  9927 1
 5569  9927  9928 1
 5570  9937  9938 1
 5571  9938  9939 1
 5572  9938  9953 1
 5573  9939  9944 1
 5574  9939  9940 1
 5575  9940  9941 1
 5576  9941  9942 1
 5577  9942  9943 1
 5578  9943  9944 1
 5579  9953  9954 1
 5580  9954  9955 1
 5581  9954  9969 1
 5582  9955  9960 1
 5583  9955  9956 1
 5584  9956  9957 1
 5585  9957  9958 1
 5586  9958  9959 1
 5587  9959  9960 1
 5588  9969  9970 1
 5589  9970  9971 1
 5590  9970  9985 1
 5591  9971  9976 1
 5592  9971  9972 1
 5593  9972  9973 1
 5594  9973  9974 1
 5595  9974  9975 1
 5596  9975  9976 1
 5597  9985  9986 1
 5598  9986  9987 1
 5599  9986 10001 1
 5600  9987  9992 1
 5601  9987  9988 1
 5602  9988  9989 1
 5603  9989  9990 1
 5604  9990  9991 1
 5605  9991  9992 1
 5606 10001 10002 1
 5607 10002 10003 1
 5608 10002 10017 1
 5609 10003 10008 1
 5610 10003 10004 1
 5611 10004 10005 1
 5612 10005 10006 1
 5613 10006 10007 1
 5614 10007 10008 1
 5615 10017 10018 1
 5616 10018 10019 1
 5617 10018 10033 1
 5618 10019 10024 1
 5619 10019 10020 1
 5620 10020 10021 1
 5621 10021 10022 1
 5622 10022 10023 1
 5623 10023 10024 1
 5624 10033 10034 1
 5625 10034 10035 1
 5626 10034 10049 1
 5627 10035 10040 1
 5628 10035 10036 1
 5629 10036 10037 1
 5630 10037 10038 1
 5631 10038 10039 1
 5632 10039 10040 1
 5633 10049 10050 1
 5634 10050 10051 1
 5635 10050 10065 1
 5636 10051 10056 1
 5637 10051 10052 1
 5638 10052 10053 1
 5639 10053 10054 1
 5640 10054 10055 1
 5641 10055 10056 1
 5642 10065 10066 1
 5643 10066 10067 1
 5644 10067 10072 1
 5645 10067 10068 1
 5646 10068 10069 1
 5647 10069 10070 1
 5648 10070 10071 1
 5649 10071 10072 1
 5650 10081 10082 1
 5651 10082 10083 1
 5652 10082 10097 1
 5653 10083 10088 1
 5654 10083 10084 1
 5655 10084 10085 1
 5656 10085 10086 1
 5657 10086 10087 1
 5658 10087 10088 1
 5659 10097 10098 1
 5660 10098 10099 1
 5661 10098 10113 1
 5662 10099 10104 1
 5663 10099 10100 1
 5664 10100 10101 1
 5665 10101 10102 1
 5666 10102 10103 1
 5667 10103 10104 1
 5668 10113 10114 1
 5669 10114 10115 1
 5670 10114 10129 1
 5671 10115 10120 1
 5672 10115 10116 1
 5673 10116 10117 1
 5674 10117 10118 1
 5675 10118 10119 1
 5676 10119 10120 1
 5677 10129 10130 1
 5678 10130 10131 1
 5679 10130 10145 1
 5680 10131 10136 1
 5681 10131 10132 1
 5682 10132 10133 1
 5683 10133 10134 1
 5684 10134 10135 1
 5685 10135 10136 1
 5686 10145 10146 1
 5687 10146 10147 1
 5688 10146 10161 1
 5689 10147 10152 1
 5690 10147 10148 1
 5691 10148 10149 1
 5692 10149 10150 1
 5693 10150 10151 1
 5694 10151 10152 1
 5695 10161 10162 1
 5696 10162 10163 1
 5697 10162 10177 1
 5698 10163 10168 1
 5699 10163 10164 1
 5700 10164 10165 1
 5701 10165 10166 1
 5702 10166 10167 1
 5703 10167 10168 1
 5704 10177 10178 1
 5705 10178 10179 1
 5706 10178 10193 1
 5707 10179 10184 1
 5708 10179 10180 1
 5709 10180 10181 1
 5710 10181 10182 1
 5711 10182 10183 1
 5712 10183 10184 1
 5713 10193 10194 1
 5714 10194 10195 1
 5715 10194 10209 1
 5716 10195 10200 1
 5717 10195 10196 1
 5718 10196 10197 1
 5719 10197 10198 1
 5720 10198 10199 1
 5721 10199 10200 1
 5722 10209 10210 1
 5723 10210 10211 1
 5724 10210 10225 1
 5725 10211 10216 1
 5726 10211 10212 1
 5727 10212 10213 1
 5728 10213 10214 1
 5729 10214 10215 1
 5730 10215 10216 1
 5731 10225 10226 1
 5732 10226 10227 1
 5733 10226 10241 1
 5734 10227 10232 1
 5735 10227 10228 1
 5736 10228 10229 1
 5737 10229 10230 1
 5738 10230 10231 1
 5739 10231 10232 1
 5740 10241 10242 1
 5741 10242 10243 1
 5742 10242 10257 1
 5743 10243 10248 1
 5744 10243 10244 1
 5745 10244 10245 1
 5746 10245 10246 1
 5747 10246 10247 1
 5748 10247 10248 1
 5749 10257 10258 1
 5750 10258 10259 1
 5751 10258 10273 1
 5752 10259 10264 1
 5753 10259 10260 1
 5754 10260 10261 1
 5755 10261 10262 1
 5756 10262 10263 1
 5757 10263 10264 1
 5758 10273 10274 1
 5759 10274 10275 1
 5760 10274 10289 1
 5761 10275 10280 1
 5762 10275 10276 1
 5763 10276 10277 1
 5764 10277 10278 1
 5765 10278 10279 1
 5766 10279 10280 1
 5767 10289 10290 1
 5768 10290 10291 1
 5769 10290 10305 1
 5770 10291 10296 1
 5771 10291 10292 1
 5772 10292 10293 1
 5773 10293 10294 1
 5774 10294 10295 1
 5775 10295 10296 1
 5776 10305 10306 1
 5777 10306 10307 1
 5778 10306 10321 1
 5779 10307 10312 1
 5780 10307 10308 1
 5781 10308 10309 1
 5782 10309 10310 1
 5783 10310 10311 1
 5784 10311 10312 1
 5785 10321 10322 1
 5786 10322 10323 1
 5787 10322 10337 1
 5788 10323 10328 1
 5789 10323 10324 1
 5790 10324 10325 1
 5791 10325 10326 1
 5792 10326 10327 1
 5793 10327 10328 1
 5794 10337 10338 1
 5795 10338 10339 1
 5796 10338 10353 1
 5797 10339 10344 1
 5798 10339 10340 1
 5799 10340 10341 1
 5800 10341 10342 1
 5801 10342 10343 1
 5802 10343 10344 1
 5803 10353 10354 1
 5804 10354 10355 1
 5805 10354 10369 1
 5806 10355 10360 1
 5807 10355 10356 1
 5808 10356 10357 1
 5809 10357 10358 1
 5810 10358 10359 1
 5811 10359 10360 1
 5812 10369 10370 1
 5813 10370 10371 1
 5814 10370 10385 1
 5815 10371 10376 1
 5816 10371 10372 1
 5817 10372 10373 1
 5818 10373 10374 1
 5819 10374 10375 1
 5820 10375 10376 1
 5821 10385 10386 1
 5822 10386 10387 1
 5823 10386 10401 1
 5824 10387 10392 1
 5825 10387 10388 1
 5826 10388 10389 1
 5827 10389 10390 1
 5828 10390 10391 1
 5829 10391 10392 1
 5830 10401 10402 1
 5831 10402 10403 1
 5832 10402 10417 1
 5833 10403 10408 1
 5834 10403 10404 1
 5835 10404 10405 1
 5836 10405 10406 1
 5837 10406 10407 1
 5838 10407 10408 1
 5839 10417 10418 1
 5840 10418 10419 1
 5841 10418 10433 1
 5842 10419 10424 1
 5843 10419 10420 1
 5844 10420 10421 1
 5845 10421 10422 1
 5846 10422 10423 1
 5847 10423 10424 1
 5848 10433 10434 1
 5849 10434 10435 1
 5850 10434 10449 1
 5851 10435 10440 1
 5852 10435 10436 1
 5853 10436 10437 1
 5854 10437 10438 1
 5855 10438 10439 1
 5856 10439 10440 1
 5857 10449 10450 1
 5858 10450 10451 1
 5859 10450 10465 1
 5860 10451 10456 1
 5861 10451 10452 1
 5862 10452 10453 1
 5863 10453 10454 1
 5864 10454 10455 1
 5865 10455 10456 1
 5866 10465 10466 1
 5867 10466 10467 1
 5868 10466 10481 1
 5869 10467 10472 1
 5870 10467 10468 1
 5871 10468 10469 1
 5872 10469 10470 1
 5873 10470 10471 1
 5874 10471 10472 1
 5875 10481 10482 1
 5876 10482 10483 1
 5877 10482 10497 1
 5878 10483 10488 1
 5879 10483 10484 1
 5880 10484 10485 1
 5881 10485 10486 1
 5882 10486 10487 1
 5883 10487 10488 1
 5884 10497 10498 1
 5885 10498 10499 1
 5886 10498 10513 1
 5887 10499 10504 1
 5888 10499 10500 1
 5889 10500 10501 1
 5890 10501 10502 1
 5891 10502 10503 1
 5892 10503 10504 1
 5893 10513 10514 1
 5894 10514 10515 1
 5895 10514 10529 1
 5896 10515 10520 1
 5897 10515 10516 1
 5898 10516 10517 1
 5899 10517 10518 1
 5900 10518 10519 1
 5901 10519 10520 1
 5902 10529 10530 1
 5903 10530 10531 1
 5904 10530 10545 1
 5905 10531 10536 1
 5906 10531 10532 1
 5907 10532 10533 1
 5908 10533 10534 1
 5909 10534 10535 1
 5910 10535 10536 1
 5911 10545 10546 1
 5912 10546 10547 1
 5913 10547 10552 1
 5914 10547 10548 1
 5915 10548 10549 1
 5916 10549 10550 1
 5917 10550 10551 1
 5918 10551 10552 1
 5919 10561 10562 1
 5920 10562 10563 1
 5921 10562 10577 1
 5922 10563 10568 1
 5923 10563 10564 1
 5924 10564 10565 1
 5925 10565 10566 1
 5926 10566 10567 1
 5927 10567 10568 1
 5928 10577 10578 1
 5929 10578 10579 1
 5930 10578 10593 1
 5931 10579 10584 1
 5932 10579 10580 1
 5933 10580 10581 1
 5934 10581 10582 1
 5935 10582 10583 1
 5936 10583 10584 1
 5937 10593 10594 1
 5938 10594 10595 1
 5939 10594 10609 1
 5940 10595 10600 1
 5941 10595 10596 1
 5942 10596 10597 1
 5943 10597 10598 1
 5944 10598 10599 1
 5945 10599 10600 1
 5946 10609 10610 1
 5947 10610 10611 1
 5948 10610 10625 1
 5949 10611 10616 1
 5950 10611 10612 1
 5951 10612 10613 1
 5952 10613 10614 1
 5953 10614 10615 1
 5954 10615 10616 1
 5955 10625 10626 1
 5956 10626 10627 1
 5957 10626 10641 1
 5958 10627 10632 1
 5959 10627 10628 1
 5960 10628 10629 1
 5961 10629 10630 1
 5962 10630 10631 1
 5963 10631 10632 1
 5964 10641 10642 1
 5965 10642 10643 1
 5966 10642 10657 1
 5967 10643 10648 1
 5968 10643 10644 1
 5969 10644 10645 1
 5970 10645 10646 1
 5971 10646 10647 1
 5972 10647 10648 1
 5973 10657 10658 1
 5974 10658 10659 1
 5975 10658 10673 1
 5976 10659 10664 1
 5977 10659 10660 1
 5978 10660 10661 1
 5979 10661 10662 1
 5980 10662 10663 1
 5981 10663 10664 1
 5982 10673 10674 1
 5983 10674 10675 1
 5984 10674 10689 1
 5985 10675 10680 1
 5986 10675 10676 1
 5987 10676 10677 1
 5988 10677 10678 1
 5989 10678 10679 1
 5990 10679 10680 1
 5991 10689 10690 1
 5992 10690 10691 1
 5993 10690 10705 1
 5994 10691 10696 1
 5995 10691 10692 1
 5996 10692 10693 1
 5997 10693 10694 1
 5998 10694 10695 1
 5999 10695 10696 1
 6000 10705 10706 1
 6001 10706 10707 1
 6002 10706 10721 1
 6003 10707 10712 1
 6004 10707 10708 1
 6005 10708 10709 1
 6006 10709 10710 1
 6007 10710 10711 1
 6008 10711 10712 1
 6009 10721 10722 1
 6010 10722 10723 1
 6011 10722 10737 1
 6012 10723 10728 1
 6013 10723 10724 1
 6014 10724 10725 1
 6015 10725 10726 1
 6016 10726 10727 1
 6017 10727 10728 1
 6018 10737 10738 1
 6019 10738 10739 1
 6020 10738 10753 1
 6021 10739 10744 1
 6022 10739 10740 1
 6023 10740 10741 1
 6024 10741 10742 1
 6025 10742 10743 1
 6026 10743 10744 1
 6027 10753 10754 1
 6028 10754 10755 1
 6029 10754 10769 1
 6030 10755 10760 1
 6031 10755 10756 1
 6032 10756 10757 1
 6033 10757 10758 1
 6034 10758 10759 1
 6035 10759 10760 1
 6036 10769 10770 1
 6037 10770 10771 1
 6038 10770 10785 1
 6039 10771 10776 1
 6040 10771 10772 1
 6041 10772 10773 1
 6042 10773 10774 1
 6043 10774 10775 1
 6044 10775 10776 1
 6045 10785 10786 1
 6046 10786 10787 1
 6047 10786 10801 1
 6048 10787 10792 1
 6049 10787 10788 1
 6050 10788 10789 1
 6051 10789 10790 1
 6052 10790 10791 1
 6053 10791 10792 1
 6054 10801 10802 1
 6055 10802 10803 1
 6056 10802 10817 1
 6057 10803 10808 1
 6058 10803 10804 1
 6059 10804 10805 1
 6060 10805 10806 1
 6061 10806 10807 1
 6062 10807 10808 1
 6063 10817 10818 1
 6064 10818 10819 1
 6065 10818 10833 1
 6066 10819 10824 1
 6067 10819 10820 1
 6068 10820 10821 1
 6069 10821 10822 1
 6070 10822 10823 1
 6071 10823 10824 1
 6072 10833 10834 1
 6073 10834 10835 1
 6074 10834 10849 1
 6075 10835 10840 1
 6076 10835 10836 1
 6077 10836 10837 1
 6078 10837 10838 1
 6079 10838 10839 1
 6080 10839 10840 1
 6081 10849 10850 1
 6082 10850 10851 1
 6083 10850 10865 1
 6084 10851 10856 1
 6085 10851 10852 1
 6086 10852 10853 1
 6087 10853 10854 1
 6088 10854 10855 1
 6089 10855 10856 1
 6090 10865 10866 1
 6091 10866 10867 1
 6092 10866 10881 1
 6093 10867 10872 1
 6094 10867 10868 1
 6095 10868 10869 1
 6096 10869 10870 1
 6097 10870 10871 1
 6098 10871 10872 1
 6099 10881 10882 1
 6100 10882 10883 1
 6101 10882 10897 1
 6102 10883 10888 1
 6103 10883 10884 1
 6104 10884 10885 1
 6105 10885 10886 1
 6106 10886 10887 1
 6107 10887 10888 1
 6108 10897 10898 1
 6109 10898 10899 1
 6110 10898 10913 1
 6111 10899 10904 1
 6112 10899 10900 1
 6113 10900 10901 1
 6114 10901 10902 1
 6115 10902 10903 1
 6116 10903 10904 1
 6117 10913 10914 1
 6118 10914 10915 1
 6119 10914 10929 1
 6120 10915 10920 1
 6121 10915 10916 1
 6122 10916 10917 1
 6123 10917 10918 1
 6124 10918 10919 1
 6125 10919 10920 1
 6126 10929 10930 1
 6127 10930 10931 1
 6128 10930 10945 1
 6129 10931 10936 1
 6130 10931 10932 1
 6131 10932 10933 1
 6132 10933 10934 1
 6133 10934 10935 1
 6134 10935 10936 1
 6135 10945 10946 1
 6136 10946 10947 1
 6137 10946 10961 1
 6138 10947 10952 1
 6139 10947 10948 1
 6140 10948 10949 1
 6141 10949 10950 1
 6142 10950 10951 1
 6143 10951 10952 1
 6144 10961 10962 1
 6145 10962 10963 1
 6146 10962 10977 1
 6147 10963 10968 1
 6148 10963 10964 1
 6149 10964 10965 1
 6150 10965 10966 1
 6151 10966 10967 1
 6152 10967 10968 1
 6153 10977 10978 1
 6154 10978 10979 1
 6155 10978 10993 1
 6156 10979 10984 1
 6157 10979 10980 1
 6158 10980 10981 1
 6159 10981 10982 1
 6160 10982 10983 1
 6161 10983 10984 1
 6162 10993 10994 1
 6163 10994 10995 1
 6164 10994 11009 1
 6165 10995 11000 1
 6166 10995 10996 1
 6167 10996 10997 1
 6168 10997 10998 1
 6169 10998 10999 1
 6170 10999 11000 1
 6171 11009 11010 1
 6172 11010 11011 1
 6173 11010 11025 1
 6174 11011 11016 1
 6175 11011 11012 1
 6176 11012 11013 1
 6177 11013 11014 1
 6178 11014 11015 1
 6179 11015 11016 1
 6180 11025 11026 1
 6181 11026 11027 1
 6182 11027 11032 1
 6183 11027 11028 1
 6184 11028 11029 1
 6185 11029 11030 1
 6186 11030 11031 1
 6187 11031 11032 1
 6188 11041 11042 1
 6189 11042 11043 1
 6190 11042 11057 1
 6191 11043 11048 1
 6192 11043 11044 1
 6193 11044 11045 1
 6194 11045 11046 1
 6195 11046 11047 1
 6196 11047 11048 1
 6197 11057 11058 1
 6198 11058 11059 1
 6199 11058 11073 1
 6200 11059 11064 1
 6201 11059 11060 1
 6202 11060 11061 1
 6203 11061 11062 1
 6204 11062 11063 1
 6205 11063 11064 1
 6206 11073 11074 1
 6207 11074 11075 1
 6208 11074 11089 1
 6209 11075 11080 1
 6210 11075 11076 1
 6211 11076 11077 1
 6212 11077 11078 1
 6213 11078 11079 1
 6214 11079 11080 1
 6215 11089 11090 1
 6216 11090 11091 1
 6217 11090 11105 1
 6218 11091 11096 1
 6219 11091 11092 1
 6220 11092 11093 1
 6221 11093 11094 1
 6222 11094 11095 1
 6223 11095 11096 1
 6224 11105 11106 1
 6225 11106 11107 1
 6226 11106 11121 1
 6227 11107 11112 1
 6228 11107 11108 1
 6229 11108 11109 1
 6230 11109 11110 1
 6231 11110 11111 1
 6232 11111 11112 1
 6233 11121 11122 1
 6234 11122 11123 1
 6235 11122 11137 1
 6236 11123 11128 1
 6237 11123 11124 1
 6238 11124 11125 1
 6239 11125 11126 1
 6240 11126 11127 1
 6241 11127 11128 1
 6242 11137 11138 1
 6243 11138 11139 1
 6244 11138 11153 1
 6245 11139 11144 1
 6246 11139 11140 1
 6247 11140 11141 1
 6248 11141 11142 1
 6249 11142 11143 1
 6250 11143 11144 1
 6251 11153 11154 1
 6252 11154 11155 1
 6253 11154 11169 1
 6254 11155 11160 1
 6255 11155 11156 1
 6256 11156 11157 1
 6257 11157 11158 1
 6258 11158 11159 1
 6259 11159 11160 1
 6260 11169 11170 1
 6261 11170 11171 1
 6262 11170 11185 1
 6263 11171 11176 1
 6264 11171 11172 1
 6265 11172 11173 1
 6266 11173 11174 1
 6267 11174 11175 1
 6268 11175 11176 1
 6269 11185 11186 1
 6270 11186 11187 1
 6271 11186 11201 1
 6272 11187 11192 1
 6273 11187 11188 1
 6274 11188 11189 1
 6275 11189 11190 1
 6276 11190 11191 1
 6277 11191 11192 1
 6278 11201 11202 1
 6279 11202 11203 1
 6280 11202 11217 1
 6281 11203 11208 1
 6282 11203 11204 1
 6283 11204 11205 1
 6284 11205 11206 1
 6285 11206 11207 1
 6286 11207 11208 1
 6287 11217 11218 1
 6288 11218 11219 1
 6289 11218 11233 1
 6290 11219 11224 1
 6291 11219 11220 1
 6292 11220 11221 1
 6293 11221 11222 1
 6294 11222 11223 1
 6295 11223 11224 1
 6296 11233 11234 1
 6297 11234 11235 1
 6298 11234 11249 1
 6299 11235 11240 1
 6300 11235 11236 1
 6301 11236 11237 1
 6302 11237 11238 1
 6303 11238 11239 1
 6304 11239 11240 1
 6305 11249 11250 1
 6306 11250 11251 1
 6307 11250 11265 1
 6308 11251 11256 1
 6309 11251 11252 1
 6310 11252 11253 1
 6311 11253 11254 1
 6312 11254 11255 1
 6313 11255 11256 1
 6314 11265 11266 1
 6315 11266 11267 1
 6316 11266 11281 1
 6317 11267 11272 1
 6318 11267 11268 1
 6319 11268 11269 1
 6320 11269 11270 1
 6321 11270 11271 1
 6322 11271 11272 1
 6323 11281 11282 1
 6324 11282 11283 1
 6325 11282 11297 1
 6326 11283 11288 1
 6327 11283 11284 1
 6328 11284 11285 1
 6329 11285 11286 1
 6330 11286 11287 1
 6331 11287 11288 1
 6332 11297 11298 1
 6333 11298 11299 1
 6334 11298 11313 1
 6335 11299 11304 1
 6336 11299 11300 1
 6337 11300 11301 1
 6338 11301 11302 1
 6339 11302 11303 1
 6340 11303 11304 1
 6341 11313 11314 1
 6342 11314 11315 1
 6343 11314 11329 1
 6344 11315 11320 1
 6345 11315 11316 1
 6346 11316 11317 1
 6347 11317 11318 1
 6348 11318 11319 1
 6349 11319 11320 1
 6350 11329 11330 1
 6351 11330 11331 1
 6352 11330 11345 1
 6353 11331 11336 1
 6354 11331 11332 1
 6355 11332 11333 1
 6356 11333 11334 1
 6357 11334 11335 1
 6358 11335 11336 1
 6359 11345 11346 1
 6360 11346 11347 1
 6361 11346 11361 1
 6362 11347 11352 1
 6363 11347 11348 1
 6364 11348 11349 1
 6365 11349 11350 1
 6366 11350 11351 1
 6367 11351 11352 1
 6368 11361 11362 1
 6369 11362 11363 1
 6370 11362 11377 1
 6371 11363 11368 1
 6372 11363 11364 1
 6373 11364 11365 1
 6374 11365 11366 1
 6375 11366 11367 1
 6376 11367 11368 1
 6377 11377 11378 1
 6378 11378 11379 1
 6379 11378 11393 1
 6380 11379 11384 1
 6381 11379 11380 1
 6382 11380 11381 1
 6383 11381 11382 1
 6384 11382 11383 1
 6385 11383 11384 1
 6386 11393 11394 1
 6387 11394 11395 1
 6388 11394 11409 1
 6389 11395 11400 1
 6390 11395 11396 1
 6391 11396 11397 1
 6392 11397 11398 1
 6393 11398 11399 1
 6394 11399 11400 1
 6395 11409 11410 1
 6396 11410 11411 1
 6397 11410 11425 1
 6398 11411 11416 1
 6399 11411 11412 1
 6400 11412 11413 1
 6401 11413 11414 1
 6402 11414 11415 1
 6403 11415 11416 1
 6404 11425 11426 1
 6405 11426 11427 1
 6406 11426 11441 1
 6407 11427 11432 1
 6408 11427 11428 1
 6409 11428 11429 1
 6410 11429 11430 1
 6411 11430 11431 1
 6412 11431 11432 1
 6413 11441 11442 1
 6414 11442 11443 1
 6415 11442 11457 1
 6416 11443 11448 1
 6417 11443 11444 1
 6418 11444 11445 1
 6419 11445 11446 1
 6420 11446 11447 1
 6421 11447 11448 1
 6422 11457 11458 1
 6423 11458 11459 1
 6424 11458 11473 1
 6425 11459 11464 1
 6426 11459 11460 1
 6427 11460 11461 1
 6428 11461 11462 1
 6429 11462 11463 1
 6430 11463 11464 1
 6431 11473 11474 1
 6432 11474 11475 1
 6433 11474 11489 1
 6434 11475 11480 1
 6435 11475 11476 1
 6436 11476 11477 1
 6437 11477 11478 1
 6438 11478 11479 1
 6439 11479 11480 1
 6440 11489 11490 1
 6441 11490 11491 1
 6442 11490 11505 1
 6443 11491 11496 1
 6444 11491 11492 1
 6445 11492 11493 1
 6446 11493 11494 1
 6447 11494 11495 1
 6448 11495 11496 1
 6449 11505 11506 1
 6450 11506 11507 1
 6451 11507 11512 1
 6452 11507 11508 1
 6453 11508 11509 1
 6454 11509 11510 1
 6455 11510 11511 1
 6456 11511 11512 1
 6457     1     9 1
 6458     1    10 1
 6459     2    11 1
 6460     4    12 1
 6461     5    13 1
 6462     6    14 1
 6463     7    15 1
 6464     8    16 1
 6465    17    25 1
 6466    17    26 1
 6467    18    27 1
 6468    20    28 1
 6469    21    29 1
 6470    22    30 1
 6471    23    31 1
 6472    24    32 1
 6473    33    41 1
 6474    33    42 1
 6475    34    43 1
 6476    36    44 1
 6477    37    45 1
 6478    38    46 1
 6479    39    47 1
 6480    40    48 1
 6481    49    57 1
 6482    49    58 1
 6483    50    59 1
 6484    52    60 1
 6485    53    61 1
 6486    54    62 1
 6487    55    63 1
 6488    56    64 1
 6489    65    73 1
 6490    65    74 1
 6491    66    75 1
 6492    68    76 1
 6493    69    77 1
 6494    70    78 1
 6495    71    79 1
 6496    72    80 1
 6497    81    89 1
 6498    81    90 1
 6499    82    91 1
 6500    84    92 1
 6501    85    93 1
 6502    86    94 1
 6503    87    95 1
 6504    88    96 1
 6505    97   105 1
 6506    97   106 1
 6507    98   107 1
 6508   100   108 1
 6509   101   109 1
 6510   102   110 1
 6511   103   111 1
 6512   104   112 1
 6513   113   121 1
 6514   113   122 1
 6515   114   123 1
 6516   116   124 1
 6517   117   125 1
 6518   118   126 1
 6519   119   127 1
 6520   120   128 1
 6521   129   137 1
 6522   129   138 1
 6523   130   139 1
 6524   132   140 1
 6525   133   141 1
 6526   134   142 1
 6527   135   143 1
 6528   136   144 1
 6529   145   153 1
 6530   145   154 1
 6531   146   155 1
 6532   148   156 1
 6533   149   157 1
 6534   150   158 1
 6535   151   159 1
 6536   152   160 1
 6537   161   169 1
 6538   161   170 1
 6539   162   171 1
 6540   164   172 1
 6541   165   173 1
 6542   166   174 1
 6543   167   175 1
 6544   168   176 1
 6545   177   185 1
 6546   177   186 1
 6547   178   187 1
 6548   180   188 1
 6549   181   189 1
 6550   182   190 1
 6551   183   191 1
 6552   184   192 1
 6553   193   201 1
 6554   193   202 1
 6555   194   203 1
 6556   196   204 1
 6557   197   205 1
 6558   198   206 1
 6559   199   207 1
 6560   200   208 1
 6561   209   217 1
 6562   209   218 1
 6563   210   219 1
 6564   212   220 1
 6565   213   221 1
 6566   214   222 1
 6567   215   223 1
 6568   216   224 1
 6569   225   233 1
 6570   225   234 1
 6571   226   235 1
 6572   228   236 1
 6573   229   237 1
 6574   230   238 1
 6575   231   239 1
 6576   232   240 1
 6577   241   249 1
 6578   241   250 1
 6579   242   251 1
 6580   244   252 1
 6581   245   253 1
 6582   246   254 1
 6583   247   255 1
 6584   248   256 1
 6585   257   265 1
 6586   257   266 1
 6587   258   267 1
 6588   260   268 1
 6589   261   269 1
 6590   262   270 1
 6591   263   271 1
 6592   264   272 1
 6593   273   281 1
 6594   273   282 1
 6595   274   283 1
 6596   276   284 1
 6597   277   285 1
 6598   278   286 1
 6599   279   287 1
 6600   280   288 1
 6601   289   297 1
 6602   289   298 1
 6603   290   299 1
 6604   292   300 1
 6605   293   301 1
 6606   294   302 1
 6607   295   303 1
 6608   296   304 1
 6609   305   313 1
 6610   305   314 1
 6611   306   315 1
 6612   308   316 1
 6613   309   317 1
 6614   310   318 1
 6615   311   319 1
 6616   312   320 1
 6617   321   329 1
 6618   321   330 1
 6619   322   331 1
 6620   324   332 1
 6621   325   333 1
 6622   326   334 1
 6623   327   335 1
 6624   328   336 1
 6625   337   345 1
 6626   337   346 1
 6627   338   347 1
 6628   340   348 1
 6629   341   349 1
 6630   342   350 1
 6631   343   351 1
 6632   344   352 1
 6633   353   361 1
 6634   353   362 1
 6635   354   363 1
 6636   356   364 1
 6637   357   365 1
 6638   358   366 1
 6639   359   367 1
 6640   360   368 1
 6641   369   377 1
 6642   369   378 1
 6643   370   379 1
 6644   372   380 1
 6645   373   381 1
 6646   374   382 1
 6647   375   383 1
 6648   376   384 1
 6649   385   393 1
 6650   385   394 1
 6651   386   395 1
 6652   388   396 1
 6653   389   397 1
 6654   390   398 1
 6655   391   399 1
 6656   392   400 1
 6657   401   409 1
 6658   401   410 1
 6659   402   411 1
 6660   404   412 1
 6661   405   413 1
 6662   406   414 1
 6663   407   415 1
 6664   408   416 1
 6665   417   425 1
 6666   417   426 1
 6667   418   427 1
 6668   420   428 1
 6669   421   429 1
 6670   422   430 1
 6671   423   431 1
 6672   424   432 1
 6673   433   441 1
 6674   433   442 1
 6675   434   443 1
 6676   436   444 1
 6677   437   445 1
 6678   438   446 1
 6679   439   447 1
 6680   440   448 1
 6681   449   457 1
 6682   449   458 1
 6683   450   459 1
 6684   452   460 1
 6685   453   461 1
 6686   454   462 1
 6687   455   463 1
 6688   456   464 1
 6689   465   473 1
 6690   465   474 1
 6691   466   475 1
 6692   468   476 1
 6693   469   477 1
 6694   470   478 1
 6695   471   479 1
 6696   472   480 1
 6697   481   489 1
 6698   481   490 1
 6699   482   491 1
 6700   484   492 1
 6701   485   493 1
 6702   486   494 1
 6703   487   495 1
 6704   488   496 1
 6705   497   505 1
 6706   497   506 1
 6707   498   507 1
 6708   500   508 1
 6709   501   509 1
 6710   502   510 1
 6711   503   511 1
 6712   504   512 1
 6713   513   521 1
 6714   513   522 1
 6715   514   523 1
 6716   516   524 1
 6717   517   525 1
 6718   518   526 1
 6719   519   527 1
 6720   520   528 1
 6721   529   537 1
 6722   529   538 1
 6723   530   539 1
 6724   532   540 1
 6725   533   541 1
 6726   534   542 1
 6727   535   543 1
 6728   536   544 1
 6729   545   553 1
 6730   545   554 1
 6731   546   555 1
 6732   548   556 1
 6733   549   557 1
 6734   550   558 1
 6735   551   559 1
 6736   552   560 1
 6737   561   569 1
 6738   561   570 1
 6739   562   571 1
 6740   564   572 1
 6741   565   573 1
 6742   566   574 1
 6743   567   575 1
 6744   568   576 1
 6745   577   585 1
 6746   577   586 1
 6747   578   587 1
 6748   580   588 1
 6749   581   589 1
 6750   582   590 1
 6751   583   591 1
 6752   584   592 1
 6753   593   601 1
 6754   593   602 1
 6755   594   603 1
 6756   596   604 1
 6757   597   605 1
 6758   598   606 1
 6759   599   607 1
 6760   600   608 1
 6761   609   617 1
 6762   609   618 1
 6763   610   619 1
 6764   612   620 1
 6765   613   621 1
 6766   614   622 1
 6767   615   623 1
 6768   616   624 1
 6769   625   633 1
 6770   625   634 1
 6771   626   635 1
 6772   628   636 1
 6773   629   637 1
 6774   630   638 1
 6775   631   639 1
 6776   632   640 1
 6777   641   649 1
 6778   641   650 1
 6779   642   651 1
 6780   644   652 1
 6781   645   653 1
 6782   646   654 1
 6783   647   655 1
 6784   648   656 1
 6785   657   665 1
 6786   657   666 1
 6787   658   667 1
 6788   660   668 1
 6789   661   669 1
 6790   662   670 1
 6791   663   671 1
 6792   664   672 1
 6793   673   681 1
 6794   673   682 1
 6795   674   683 1
 6796   676   684 1
 6797   677   685 1
 6798   678   686 1
 6799   679   687 1
 6800   680   688 1
 6801   689   697 1
 6802   689   698 1
 6803   690   699 1
 6804   692   700 1
 6805   693   701 1
 6806   694   702 1
 6807   695   703 1
 6808   696   704 1
 6809   705   713 1
 6810   705   714 1
 6811   706   715 1
 6812   708   716 1
 6813   709   717 1
 6814   710   718 1
 6815   711   719 1
 6816   712   720 1
 6817   721   729 1
 6818   721   730 1
 6819   722   731 1
 6820   724   732 1
 6821   725   733 1
 6822   726   734 1
 6823   727   735 1
 6824   728   736 1
 6825   737   745 1
 6826   737   746 1
 6827   738   747 1
 6828   740   748 1
 6829   741   749 1
 6830   742   750 1
 6831   743   751 1
 6832   744   752 1
 6833   753   761 1
 6834   753   762 1
 6835   754   763 1
 6836   756   764 1
 6837   757   765 1
 6838   758   766 1
 6839   759   767 1
 6840   760   768 1
 6841   769   777 1
 6842   769   778 1
 6843   770   779 1
 6844   772   780 1
 6845   773   781 1
 6846   774   782 1
 6847   775   783 1
 6848   776   784 1
 6849   785   793 1
 6850   785   794 1
 6851   786   795 1
 6852   788   796 1
 6853   789   797 1
 6854   790   798 1
 6855   791   799 1
 6856   792   800 1
 6857   801   809 1
 6858   801   810 1
 6859   802   811 1
 6860   804   812 1
 6861   805   813 1
 6862   806   814 1
 6863   807   815 1
 6864   808   816 1
 6865   817   825 1
 6866   817   826 1
 6867   818   827 1
 6868   820   828 1
 6869   821   829 1
 6870   822   830 1
 6871   823   831 1
 6872   824   832 1
 6873   833   841 1
 6874   833   842 1
 6875   834   843 1
 6876   836   844 1
 6877   837   845 1
 6878   838   846 1
 6879   839   847 1
 6880   840   848 1
 6881   849   857 1
 6882   849   858 1
 6883   850   859 1
 6884   852   860 1
 6885   853   861 1
 6886   854   862 1
 6887   855   863 1
 6888   856   864 1
 6889   865   873 1
 6890   865   874 1
 6891   866   875 1
 6892   868   876 1
 6893   869   877 1
 6894   870   878 1
 6895   871   879 1
 6896   872   880 1
 6897   881   889 1
 6898   881   890 1
 6899   882   891 1
 6900   884   892 1
 6901   885   893 1
 6902   886   894 1
 6903   887   895 1
 6904   888   896 1
 6905   897   905 1
 6906   897   906 1
 6907   898   907 1
 6908   900   908 1
 6909   901   909 1
 6910   902   910 1
 6911   903   911 1
 6912   904   912 1
 6913   913   921 1
 6914   913   922 1
 6915   914   923 1
 6916   916   924 1
 6917   917   925 1
 6918   918   926 1
 6919   919   927 1
 6920   920   928 1
 6921   929   937 1
 6922   929   938 1
 6923   930   939 1
 6924   932   940 1
 6925   933   941 1
 6926   934   942 1
 6927   935   943 1
 6928   936   944 1
 6929   945   953 1
 6930   945   954 1
 6931   946   955 1
 6932   948   956 1
 6933   949   957 1
 6934   950   958 1
 6935   951   959 1
 6936   952   960 1
 6937   961   969 1
 6938   961   970 1
 6939   962   971 1
 6940   964   972 1
 6941   965   973 1
 6942   966   974 1
 6943   967   975 1
 6944   968   976 1
 6945   977   985 1
 6946   977   986 1
 6947   978   987 1
 6948   980   988 1
 6949   981   989 1
 6950   982   990 1
 6951   983   991 1
 6952   984   992 1
 6953   993  1001 1
 6954   993  1002 1
 6955   994  1003 1
 6956   996  1004 1
 6957   997  1005 1
 6958   998  1006 1
 6959   999  1007 1
 6960  1000  1008 1
 6961  1009  1017 1
 6962  1009  1018 1
 6963  1010  1019 1
 6964  1012  1020 1
 6965  1013  1021 1
 6966  1014  1022 1
 6967  1015  1023 1
 6968  1016  1024 1
 6969  1025  1033 1
 6970  1025  1034 1
 6971  1026  1035 1
 6972  1028  1036 1
 6973  1029  1037 1
 6974  1030  1038 1
 6975  1031  1039 1
 6976  1032  1040 1
 6977  1041  1049 1
 6978  1041  1050 1
 6979  1042  1051 1
 6980  1044  1052 1
 6981  1045  1053 1
 6982  1046  1054 1
 6983  1047  1055 1
 6984  1048  1056 1
 6985  1057  1065 1
 6986  1057  1066 1
 6987  1058  1067 1
 6988  1060  1068 1
 6989  1061  1069 1
 6990  1062  1070 1
 6991  1063  1071 1
 6992  1064  1072 1
 6993  1073  1081 1
 6994  1073  1082 1
 6995  1074  1083 1
 6996  1076  1084 1
 6997  1077  1085 1
 6998  1078  1086 1
 6999  1079  1087 1
 7000  1080  1088 1
 7001  1089  1097 1
 7002  1089  1098 1
 7003  1090  1099 1
 7004  1092  1100 1
 7005  1093  1101 1
 7006  1094  1102 1
 7007  1095  1103 1
 7008  1096  1104 1
 7009  1105  1113 1
 7010  1105  1114 1
 7011  1106  1115 1
 7012  1108  1116 1
 7013  1109  1117 1
 7014  1110  1118 1
 7015  1111  1119 1
 7016  1112  1120 1
 7017  1121  1129 1
 7018  1121  1130 1
 7019  1122  1131 1
 7020  1124  1132 1
 7021  1125  1133 1
 7022  1126  1134 1
 7023  1127  1135 1
 7024  1128  1136 1
 7025  1137  1145 1
 7026  1137  1146 1
 7027  1138  1147 1
 7028  1140  1148 1
 7029  1141  1149 1
 7030  1142  1150 1
 7031  1143  1151 1
 7032  1144  1152 1
 7033  1153  1161 1
 7034  1153  1162 1
 7035  1154  1163 1
 7036  1156  1164 1
 7037  1157  1165 1
 7038  1158  1166 1
 7039  1159  1167 1
 7040  1160  1168 1
 7041  1169  1177 1
 7042  1169  1178 1
 7043  1170  1179 1
 7044  1172  1180 1
 7045  1173  1181 1
 7046  1174  1182 1
 7047  1175  1183 1
 7048  1176  1184 1
 7049  1185  1193 1
 7050  1185  1194 1
 7051  1186  1195 1
 7052  1188  1196 1
 7053  1189  1197 1
 7054  1190  1198 1
 7055  1191  1199 1
 7056  1192  1200 1
 7057  1201  1209 1
 7058  1201  1210 1
 7059  1202  1211 1
 7060  1204  1212 1
 7061  1205  1213 1
 7062  1206  1214 1
 7063  1207  1215 1
 7064  1208  1216 1
 7065  1217  1225 1
 7066  1217  1226 1
 7067  1218  1227 1
 7068  1220  1228 1
 7069  1221  1229 1
 7070  1222  1230 1
 7071  1223  1231 1
 7072  1224  1232 1
 7073  1233  1241 1
 7074  1233  1242 1
 7075  1234  1243 1
 7076  1236  1244 1
 7077  1237  1245 1
 7078  1238  1246 1
 7079  1239  1247 1
 7080  1240  1248 1
 7081  1249  1257 1
 7082  1249  1258 1
 7083  1250  1259 1
 7084  1252  1260 1
 7085  1253  1261 1
 7086  1254  1262 1
 7087  1255  1263 1
 7088  1256  1264 1
 7089  1265  1273 1
 7090  1265  1274 1
 7091  1266  1275 1
 7092  1268  1276 1
 7093  1269  1277 1
 7094  1270  1278 1
 7095  1271  1279 1
 7096  1272  1280 1
 7097  1281  1289 1
 7098  1281  1290 1
 7099  1282  1291 1
 7100  1284  1292 1
 7101  1285  1293 1
 7102  1286  1294 1
 7103  1287  1295 1
 7104  1288  1296 1
 7105  1297  1305 1
 7106  1297  1306 1
 7107  1298  1307 1
 7108  1300  1308 1
 7109  1301  1309 1
 7110  1302  1310 1
 7111  1303  1311 1
 7112  1304  1312 1
 7113  1313  1321 1
 7114  1313  1322 1
 7115  1314  1323 1
 7116  1316  1324 1
 7117  1317  1325 1
 7118  1318  1326 1
 7119  1319  1327 1
 7120  1320  1328 1
 7121  1329  1337 1
 7122  1329  1338 1
 7123  1330  1339 1
 7124  1332  1340 1
 7125  1333  1341 1
 7126  1334  1342 1
 7127  1335  1343 1
 7128  1336  1344 1
 7129  1345  1353 1
 7130  1345  1354 1
 7131  1346  1355 1
 7132  1348  1356 1
 7133  1349  1357 1
 7134  1350  1358 1
 7135  1351  1359 1
 7136  1352  1360 1
 7137  1361  1369 1
 7138  1361  1370 1
 7139  1362  1371 1
 7140  1364  1372 1
 7141  1365  1373 1
 7142  1366  1374 1
 7143  1367  1375 1
 7144  1368  1376 1
 7145  1377  1385 1
 7146  1377  1386 1
 7147  1378  1387 1
 7148  1380  1388 1
 7149  1381  1389 1
 7150  1382  1390 1
 7151  1383  1391 1
 7152  1384  1392 1
 7153  1393  1401 1
 7154  1393  1402 1
 7155  1394  1403 1
 7156  1396  1404 1
 7157  1397  1405 1
 7158  1398  1406 1
 7159  1399  1407 1
 7160  1400  1408 1
 7161  1409  1417 1
 7162  1409  1418 1
 7163  1410  1419 1
 7164  1412  1420 1
 7165  1413  1421 1
 7166  1414  1422 1
 7167  1415  1423 1
 7168  1416  1424 1
 7169  1425  1433 1
 7170  1425  1434 1
 7171  1426  1435 1
 7172  1428  1436 1
 7173  1429  1437 1
 7174  1430  1438 1
 7175  1431  1439 1
 7176  1432  1440 1
 7177  1441  1449 1
 7178  1441  1450 1
 7179  1442  1451 1
 7180  1444  1452 1
 7181  1445  1453 1
 7182  1446  1454 1
 7183  1447  1455 1
 7184  1448  1456 1
 7185  1457  1465 1
 7186  1457  1466 1
 7187  1458  1467 1
 7188  1460  1468 1
 7189  1461  1469 1
 7190  1462  1470 1
 7191  1463  1471 1
 7192  1464  1472 1
 7193  1473  1481 1
 7194  1473  1482 1
 7195  1474  1483 1
 7196  1476  1484 1
 7197  1477  1485 1
 7198  1478  1486 1
 7199  1479  1487 1
 7200  1480  1488 1
 7201  1489  1497 1
 7202  1489  1498 1
 7203  1490  1499 1
 7204  1492  1500 1
 7205  1493  1501 1
 7206  1494  1502 1
 7207  1495  1503 1
 7208  1496  1504 1
 7209  1505  1513 1
 7210  1505  1514 1
 7211  1506  1515 1
 7212  1508  1516 1
 7213  1509  1517 1
 7214  1510  1518 1
 7215  1511  1519 1
 7216  1512  1520 1
 7217  1521  1529 1
 7218  1521  1530 1
 7219  1522  1531 1
 7220  1524  1532 1
 7221  1525  1533 1
 7222  1526  1534 1
 7223  1527  1535 1
 7224  1528  1536 1
 7225  1537  1545 1
 7226  1537  1546 1
 7227  1538  1547 1
 7228  1540  1548 1
 7229  1541  1549 1
 7230  1542  1550 1
 7231  1543  1551 1
 7232  1544  1552 1
 7233  1553  1561 1
 7234  1553  1562 1
 7235  1554  1563 1
 7236  1556  1564 1
 7237  1557  1565 1
 7238  1558  1566 1
 7239  1559  1567 1
 7240  1560  1568 1
 7241  1569  1577 1
 7242  1569  1578 1
 7243  1570  1579 1
 7244  1572  1580 1
 7245  1573  1581 1
 7246  1574  1582 1
 7247  1575  1583 1
 7248  1576  1584 1
 7249  1585  1593 1
 7250  1585  1594 1
 7251  1586  1595 1
 7252  1588  1596 1
 7253  1589  1597 1
 7254  1590  1598 1
 7255  1591  1599 1
 7256  1592  1600 1
 7257  1601  1609 1
 7258  1601  1610 1
 7259  1602  1611 1
 7260  1604  1612 1
 7261  1605  1613 1
 7262  1606  1614 1
 7263  1607  1615 1
 7264  1608  1616 1
 7265  1617  1625 1
 7266  1617  1626 1
 7267  1618  1627 1
 7268  1620  1628 1
 7269  1621  1629 1
 7270  1622  1630 1
 7271  1623  1631 1
 7272  1624  1632 1
 7273  1633  1641 1
 7274  1633  1642 1
 7275  1634  1643 1
 7276  1636  1644 1
 7277  1637  1645 1
 7278  1638  1646 1
 7279  1639  1647 1
 7280  1640  1648 1
 7281  1649  1657 1
 7282  1649  1658 1
 7283  1650  1659 1
 7284  1652  1660 1
 7285  1653  1661 1
 7286  1654  1662 1
 7287  1655  1663 1
 7288  1656  1664 1
 7289  1665  1673 1
 7290  1665  1674 1
 7291  1666  1675 1
 7292  1668  1676 1
 7293  1669  1677 1
 7294  1670  1678 1
 7295  1671  1679 1
 7296  1672  1680 1
 7297  1681  1689 1
 7298  1681  1690 1
 7299  1682  1691 1
 7300  1684  1692 1
 7301  1685  1693 1
 7302  1686  1694 1
 7303  1687  1695 1
 7304  1688  1696 1
 7305  1697  1705 1
 7306  1697  1706 1
 7307  1698  1707 1
 7308  1700  1708 1
 7309  1701  1709 1
 7310  1702  1710 1
 7311  1703  1711 1
 7312  1704  1712 1
 7313  1713  1721 1
 7314  1713  1722 1
 7315  1714  1723 1
 7316  1716  1724 1
 7317  1717  1725 1
 7318  1718  1726 1
 7319  1719  1727 1
 7320  1720  1728 1
 7321  1729  1737 1
 7322  1729  1738 1
 7323  1730  1739 1
 7324  1732  1740 1
 7325  1733  1741 1
 7326  1734  1742 1
 7327  1735  1743 1
 7328  1736  1744 1
 7329  1745  1753 1
 7330  1745  1754 1
 7331  1746  1755 1
 7332  1748  1756 1
 7333  1749  1757 1
 7334  1750  1758 1
 7335  1751  1759 1
 7336  1752  1760 1
 7337  1761  1769 1
 7338  1761  1770 1
 7339  1762  1771 1
 7340  1764  1772 1
 7341  1765  1773 1
 7342  1766  1774 1
 7343  1767  1775 1
 7344  1768  1776 1
 7345  1777  1785 1
 7346  1777  1786 1
 7347  1778  1787 1
 7348  1780  1788 1
 7349  1781  1789 1
 7350  1782  1790 1
 7351  1783  1791 1
 7352  1784  1792 1
 7353  1793  1801 1
 7354  1793  1802 1
 7355  1794  1803 1
 7356  1796  1804 1
 7357  1797  1805 1
 7358  1798  1806 1
 7359  1799  1807 1
 7360  1800  1808 1
 7361  1809  1817 1
 7362  1809  1818 1
 7363  1810  1819 1
 7364  1812  1820 1
 7365  1813  1821 1
 7366  1814  1822 1
 7367  1815  1823 1
 7368  1816  1824 1
 7369  1825  1833 1
 7370  1825  1834 1
 7371  1826  1835 1
 7372  1828  1836 1
 7373  1829  1837 1
 7374  1830  1838 1
 7375  1831  1839 1
 7376  1832  1840 1
 7377  1841  1849 1
 7378  1841  1850 1
 7379  1842  1851 1
 7380  1844  1852 1
 7381  1845  1853 1
 7382  1846  1854 1
 7383  1847  1855 1
 7384  1848  1856 1
 7385  1857  1865 1
 7386  1857  1866 1
 7387  1858  1867 1
 7388  1860  1868 1
 7389  1861  1869 1
 7390  1862  1870 1
 7391  1863  1871 1
 7392  1864  1872 1
 7393  1873  1881 1
 7394  1873  1882 1
 7395  1874  1883 1
 7396  1876  1884 1
 7397  1877  1885 1
 7398  1878  1886 1
 7399  1879  1887 1
 7400  1880  1888 1
 7401  1889  1897 1
 7402  1889  1898 1
 7403  1890  1899 1
 7404  1892  1900 1
 7405  1893  1901 1
 7406  1894  1902 1
 7407  1895  1903 1
 7408  1896  1904 1
 7409  1905  1913 1
 7410  1905  1914 1
 7411  1906  1915 1
 7412  1908  1916 1
 7413  1909  1917 1
 7414  1910  1918 1
 7415  1911  1919 1
 7416  1912  1920 1
 7417  1921  1929 1
 7418  1921  1930 1
 7419  1922  1931 1
 7420  1924  1932 1
 7421  1925  1933 1
 7422  1926  1934 1
 7423  1927  1935 1
 7424  1928  1936 1
 7425  1937  1945 1
 7426  1937  1946 1
 7427  1938  1947 1
 7428  1940  1948 1
 7429  1941  1949 1
 7430  1942  1950 1
 7431  1943  1951 1
 7432  1944  1952 1
 7433  1953  1961 1
 7434  1953  1962 1
 7435  1954  1963 1
 7436  1956  1964 1
 7437  1957  1965 1
 7438  1958  1966 1
 7439  1959  1967 1
 7440  1960  1968 1
 7441  1969  1977 1
 7442  1969  1978 1
 7443  1970  1979 1
 7444  1972  1980 1
 7445  1973  1981 1
 7446  1974  1982 1
 7447  1975  1983 1
 7448  1976  1984 1
 7449  1985  1993 1
 7450  1985  1994 1
 7451  1986  1995 1
 7452  1988  1996 1
 7453  1989  1997 1
 7454  1990  1998 1
 7455  1991  1999 1
 7456  1992  2000 1
 7457  2001  2009 1
 7458  2001  2010 1
 7459  2002  2011 1
 7460  2004  2012 1
 7461  2005  2013 1
 7462  2006  2014 1
 7463  2007  2015 1
 7464  2008  2016 1
 7465  2017  2025 1
 7466  2017  2026 1
 7467  2018  2027 1
 7468  2020  2028 1
 7469  2021  2029 1
 7470  2022  2030 1
 7471  2023  2031 1
 7472  2024  2032 1
 7473  2033  2041 1
 7474  2033  2042 1
 7475  2034  2043 1
 7476  2036  2044 1
 7477  2037  2045 1
 7478  2038  2046 1
 7479  2039  2047 1
 7480  2040  2048 1
 7481  2049  2057 1
 7482  2049  2058 1
 7483  2050  2059 1
 7484  2052  2060 1
 7485  2053  2061 1
 7486  2054  2062 1
 7487  2055  2063 1
 7488  2056  2064 1
 7489  2065  2073 1
 7490  2065  2074 1
 7491  2066  2075 1
 7492  2068  2076 1
 7493  2069  2077 1
 7494  2070  2078 1
 7495  2071  2079 1
 7496  2072  2080 1
 7497  2081  2089 1
 7498  2081  2090 1
 7499  2082  2091 1
 7500  2084  2092 1
 7501  2085  2093 1
 7502  2086  2094 1
 7503  2087  2095 1
 7504  2088  2096 1
 7505  2097  2105 1
 7506  2097  2106 1
 7507  2098  2107 1
 7508  2100  2108 1
 7509  2101  2109 1
 7510  2102  2110 1
 7511  2103  2111 1
 7512  2104  2112 1
 7513  2113  2121 1
 7514  2113  2122 1
 7515  2114  2123 1
 7516  2116  2124 1
 7517  2117  2125 1
 7518  2118  2126 1
 7519  2119  2127 1
 7520  2120  2128 1
 7521  2129  2137 1
 7522  2129  2138 1
 7523  2130  2139 1
 7524  2132  2140 1
 7525  2133  2141 1
 7526  2134  2142 1
 7527  2135  2143 1
 7528  2136  2144 1
 7529  2145  2153 1
 7530  2145  2154 1
 7531  2146  2155 1
 7532  2148  2156 1
 7533  2149  2157 1
 7534  2150  2158 1
 7535  2151  2159 1
 7536  2152  2160 1
 7537  2161  2169 1
 7538  2161  2170 1
 7539  2162  2171 1
 7540  2164  2172 1
 7541  2165  2173 1
 7542  2166  2174 1
 7543  2167  2175 1
 7544  2168  2176 1
 7545  2177  2185 1
 7546  2177  2186 1
 7547  2178  2187 1
 7548  2180  2188 1
 7549  2181  2189 1
 7550  2182  2190 1
 7551  2183  2191 1
 7552  2184  2192 1
 7553  2193  2201 1
 7554  2193  2202 1
 7555  2194  2203 1
 7556  2196  2204 1
 7557  2197  2205 1
 7558  2198  2206 1
 7559  2199  2207 1
 7560  2200  2208 1
 7561  2209  2217 1
 7562  2209  2218 1
 7563  2210  2219 1
 7564  2212  2220 1
 7565  2213  2221 1
 7566  2214  2222 1
 7567  2215  2223 1
 7568  2216  2224 1
 7569  2225  2233 1
 7570  2225  2234 1
 7571  2226  2235 1
 7572  2228  2236 1
 7573  2229  2237 1
 7574  2230  2238 1
 7575  2231  2239 1
 7576  2232  2240 1
 7577  2241  2249 1
 7578  2241  2250 1
 7579  2242  2251 1
 7580  2244  2252 1
 7581  2245  2253 1
 7582  2246  2254 1
 7583  2247  2255 1
 7584  2248  2256 1
 7585  2257  2265 1
 7586  2257  2266 1
 7587  2258  2267 1
 7588  2260  2268 1
 7589  2261  2269 1
 7590  2262  2270 1
 7591  2263  2271 1
 7592  2264  2272 1
 7593  2273  2281 1
 7594  2273  2282 1
 7595  2274  2283 1
 7596  2276  2284 1
 7597  2277  2285 1
 7598  2278  2286 1
 7599  2279  2287 1
 7600  2280  2288 1
 7601  2289  2297 1
 7602  2289  2298 1
 7603  2290  2299 1
 7604  2292  2300 1
 7605  2293  2301 1
 7606  2294  2302 1
 7607  2295  2303 1
 7608  2296  2304 1
 7609  2305  2313 1
 7610  2305  2314 1
 7611  2306  2315 1
 7612  2308  2316 1
 7613  2309  2317 1
 7614  2310  2318 1
 7615  2311  2319 1
 7616  2312  2320 1
 7617  2321  2329 1
 7618  2321  2330 1
 7619  2322  2331 1
 7620  2324  2332 1
 7621  2325  2333 1
 7622  2326  2334 1
 7623  2327  2335 1
 7624  2328  2336 1
 7625  2337  2345 1
 7626  2337  2346 1
 7627  2338  2347 1
 7628  2340  2348 1
 7629  2341  2349 1
 7630  2342  2350 1
 7631  2343  2351 1
 7632  2344  2352 1
 7633  2353  2361 1
 7634  2353  2362 1
 7635  2354  2363 1
 7636  2356  2364 1
 7637  2357  2365 1
 7638  2358  2366 1
 7639  2359  2367 1
 7640  2360  2368 1
 7641  2369  2377 1
 7642  2369  2378 1
 7643  2370  2379 1
 7644  2372  2380 1
 7645  2373  2381 1
 7646  2374  2382 1
 7647  2375  2383 1
 7648  2376  2384 1
 7649  2385  2393 1
 7650  2385  2394 1
 7651  2386  2395 1
 7652  2388  2396 1
 7653  2389  2397 1
 7654  2390  2398 1
 7655  2391  2399 1
 7656  2392  2400 1
 7657  2401  2409 1
 7658  2401  2410 1
 7659  2402  2411 1
 7660  2404  2412 1
 7661  2405  2413 1
 7662  2406  2414 1
 7663  2407  2415 1
 7664  2408  2416 1
 7665  2417  2425 1
 7666  2417  2426 1
 7667  2418  2427 1
 7668  2420  2428 1
 7669  2421  2429 1
 7670  2422  2430 1
 7671  2423  2431 1
 7672  2424  2432 1
 7673  2433  2441 1
 7674  2433  2442 1
 7675  2434  2443 1
 7676  2436  2444 1
 7677  2437  2445 1
 7678  2438  2446 1
 7679  2439  2447 1
 7680  2440  2448 1
 7681  2449  2457 1
 7682  2449  2458 1
 7683  2450  2459 1
 7684  2452  2460 1
 7685  2453  2461 1
 7686  2454  2462 1
 7687  2455  2463 1
 7688  2456  2464 1
 7689  2465  2473 1
 7690  2465  2474 1
 7691  2466  2475 1
 7692  2468  2476 1
 7693  2469  2477 1
 7694  2470  2478 1
 7695  2471  2479 1
 7696  2472  2480 1
 7697  2481  2489 1
 7698  2481  2490 1
 7699  2482  2491 1
 7700  2484  2492 1
 7701  2485  2493 1
 7702  2486  2494 1
 7703  2487  2495 1
 7704  2488  2496 1
 7705  2497  2505 1
 7706  2497  2506 1
 7707  2498  2507 1
 7708  2500  2508 1
 7709  2501  2509 1
 7710  2502  2510 1
 7711  2503  2511 1
 7712  2504  2512 1
 7713  2513  2521 1
 7714  2513  2522 1
 7715  2514  2523 1
 7716  2516  2524 1
 7717  2517  2525 1
 7718  2518  2526 1
 7719  2519  2527 1
 7720  2520  2528 1
 7721  2529  2537 1
 7722  2529  2538 1
 7723  2530  2539 1
 7724  2532  2540 1
 7725  2533  2541 1
 7726  2534  2542 1
 7727  2535  2543 1
 7728  2536  2544 1
 7729  2545  2553 1
 7730  2545  2554 1
 7731  2546  2555 1
 7732  2548  2556 1
 7733  2549  2557 1
 7734  2550  2558 1
 7735  2551  2559 1
 7736  2552  2560 1
 7737  2561  2569 1
 7738  2561  2570 1
 7739  2562  2571 1
 7740  2564  2572 1
 7741  2565  2573 1
 7742  2566  2574 1
 7743  2567  2575 1
 7744  2568  2576 1
 7745  2577  2585 1
 7746  2577  2586 1
 7747  2578  2587 1
 7748  2580  2588 1
 7749  2581  2589 1
 7750  2582  2590 1
 7751  2583  2591 1
 7752  2584  2592 1
 7753  2593  2601 1
 7754  2593  2602 1
 7755  2594  2603 1
 7756  2596  2604 1
 7757  2597  2605 1
 7758  2598  2606 1
 7759  2599  2607 1
 7760  2600  2608 1
 7761  2609  2617 1
 7762  2609  2618 1
 7763  2610  2619 1
 7764  2612  2620 1
 7765  2613  2621 1
 7766  2614  2622 1
 7767  2615  2623 1
 7768  2616  2624 1
 7769  2625  2633 1
 7770  2625  2634 1
 7771  2626  2635 1
 7772  2628  2636 1
 7773  2629  2637 1
 7774  2630  2638 1
 7775  2631  2639 1
 7776  2632  2640 1
 7777  2641  2649 1
 7778  2641  2650 1
 7779  2642  2651 1
 7780  2644  2652 1
 7781  2645  2653 1
 7782  2646  2654 1
 7783  2647  2655 1
 7784  2648  2656 1
 7785  2657  2665 1
 7786  2657  2666 1
 7787  2658  2667 1
 7788  2660  2668 1
 7789  2661  2669 1
 7790  2662  2670 1
 7791  2663  2671 1
 7792  2664  2672 1
 7793  2673  2681 1
 7794  2673  2682 1
 7795  2674  2683 1
 7796  2676  2684 1
 7797  2677  2685 1
 7798  2678  2686 1
 7799  2679  2687 1
 7800  2680  2688 1
 7801  2689  2697 1
 7802  2689  2698 1
 7803  2690  2699 1
 7804  2692  2700 1
 7805  2693  2701 1
 7806  2694  2702 1
 7807  2695  2703 1
 7808  2696  2704 1
 7809  2705  2713 1
 7810  2705  2714 1
 7811  2706  2715 1
 7812  2708  2716 1
 7813  2709  2717 1
 7814  2710  2718 1
 7815  2711  2719 1
 7816  2712  2720 1
 7817  2721  2729 1
 7818  2721  2730 1
 7819  2722  2731 1
 7820  2724  2732 1
 7821  2725  2733 1
 7822  2726  2734 1
 7823  2727  2735 1
 7824  2728  2736 1
 7825  2737  2745 1
 7826  2737  2746 1
 7827  2738  2747 1
 7828  2740  2748 1
 7829  2741  2749 1
 7830  2742  2750 1
 7831  2743  2751 1
 7832  2744  2752 1
 7833  2753  2761 1
 7834  2753  2762 1
 7835  2754  2763 1
 7836  2756  2764 1
 7837  2757  2765 1
 7838  2758  2766 1
 7839  2759  2767 1
 7840  2760  2768 1
 7841  2769  2777 1
 7842  2769  2778 1
 7843  2770  2779 1
 7844  2772  2780 1
 7845  2773  2781 1
 7846  2774  2782 1
 7847  2775  2783 1
 7848  2776  2784 1
 7849  2785  2793 1
 7850  2785  2794 1
 7851  2786  2795 1
 7852  2788  2796 1
 7853  2789  2797 1
 7854  2790  2798 1
 7855  2791  2799 1
 7856  2792  2800 1
 7857  2801  2809 1
 7858  2801  2810 1
 7859  2802  2811 1
 7860  2804  2812 1
 7861  2805  2813 1
 7862  2806  2814 1
 7863  2807  2815 1
 7864  2808  2816 1
 7865  2817  2825 1
 7866  2817  2826 1
 7867  2818  2827 1
 7868  2820  2828 1
 7869  2821  2829 1
 7870  2822  2830 1
 7871  2823  2831 1
 7872  2824  2832 1
 7873  2833  2841 1
 7874  2833  2842 1
 7875  2834  2843 1
 7876  2836  2844 1
 7877  2837  2845 1
 7878  2838  2846 1
 7879  2839  2847 1
 7880  2840  2848 1
 7881  2849  2857 1
 7882  2849  2858 1
 7883  2850  2859 1
 7884  2852  2860 1
 7885  2853  2861 1
 7886  2854  2862 1
 7887  2855  2863 1
 7888  2856  2864 1
 7889  2865  2873 1
 7890  2865  2874 1
 7891  2866  2875 1
 7892  2868  2876 1
 7893  2869  2877 1
 7894  2870  2878 1
 7895  2871  2879 1
 7896  2872  2880 1
 7897  2881  2889 1
 7898  2881  2890 1
 7899  2882  2891 1
 7900  2884  2892 1
 7901  2885  2893 1
 7902  2886  2894 1
 7903  2887  2895 1
 7904  2888  2896 1
 7905  2897  2905 1
 7906  2897  2906 1
 7907  2898  2907 1
 7908  2900  2908 1
 7909  2901  2909 1
 7910  2902  2910 1
 7911  2903  2911 1
 7912  2904  2912 1
 7913  2913  2921 1
 7914  2913  2922 1
 7915  2914  2923 1
 7916  2916  2924 1
 7917  2917  2925 1
 7918  2918  2926 1
 7919  2919  2927 1
 7920  2920  2928 1
 7921  2929  2937 1
 7922  2929  2938 1
 7923  2930  2939 1
 7924  2932  2940 1
 7925  2933  2941 1
 7926  2934  2942 1
 7927  2935  2943 1
 7928  2936  2944 1
 7929  2945  2953 1
 7930  2945  2954 1
 7931  2946  2955 1
 7932  2948  2956 1
 7933  2949  2957 1
 7934  2950  2958 1
 7935  2951  2959 1
 7936  2952  2960 1
 7937  2961  2969 1
 7938  2961  2970 1
 7939  2962  2971 1
 7940  2964  2972 1
 7941  2965  2973 1
 7942  2966  2974 1
 7943  2967  2975 1
 7944  2968  2976 1
 7945  2977  2985 1
 7946  2977  2986 1
 7947  2978  2987 1
 7948  2980  2988 1
 7949  2981  2989 1
 7950  2982  2990 1
 7951  2983  2991 1
 7952  2984  2992 1
 7953  2993  3001 1
 7954  2993  3002 1
 7955  2994  3003 1
 7956  2996  3004 1
 7957  2997  3005 1
 7958  2998  3006 1
 7959  2999  3007 1
 7960  3000  3008 1
 7961  3009  3017 1
 7962  3009  3018 1
 7963  3010  3019 1
 7964  3012  3020 1
 7965  3013  3021 1
 7966  3014  3022 1
 7967  3015  3023 1
 7968  3016  3024 1
 7969  3025  3033 1
 7970  3025  3034 1
 7971  3026  3035 1
 7972  3028  3036 1
 7973  3029  3037 1
 7974  3030  3038 1
 7975  3031  3039 1
 7976  3032  3040 1
 7977  3041  3049 1
 7978  3041  3050 1
 7979  3042  3051 1
 7980  3044  3052 1
 7981  3045  3053 1
 7982  3046  3054 1
 7983  3047  3055 1
 7984  3048  3056 1
 7985  3057  3065 1
 7986  3057  3066 1
 7987  3058  3067 1
 7988  3060  3068 1
 7989  3061  3069 1
 7990  3062  3070 1
 7991  3063  3071 1
 7992  3064  3072 1
 7993  3073  3081 1
 7994  3073  3082 1
 7995  3074  3083 1
 7996  3076  3084 1
 7997  3077  3085 1
 7998  3078  3086 1
 7999  3079  3087 1
 8000  3080  3088 1
 8001  3089  3097 1
 8002  3089  3098 1
 8003  3090  3099 1
 8004  3092  3100 1
 8005  3093  3101 1
 8006  3094  3102 1
 8007  3095  3103 1
 8008  3096  3104 1
 8009  3105  3113 1
 8010  3105  3114 1
 8011  3106  3115 1
 8012  3108  3116 1
 8013  3109  3117 1
 8014  3110  3118 1
 8015  3111  3119 1
 8016  3112  3120 1
 8017  3121  3129 1
 8018  3121  3130 1
 8019  3122  3131 1
 8020  3124  3132 1
 8021  3125  3133 1
 8022  3126  3134 1
 8023  3127  3135 1
 8024  3128  3136 1
 8025  3137  3145 1
 8026  3137  3146 1
 8027  3138  3147 1
 8028  3140  3148 1
 8029  3141  3149 1
 8030  3142  3150 1
 8031  3143  3151 1
 8032  3144  3152 1
 8033  3153  3161 1
 8034  3153  3162 1
 8035  3154  3163 1
 8036  3156  3164 1
 8037  3157  3165 1
 8038  3158  3166 1
 8039  3159  3167 1
 8040  3160  3168 1
 8041  3169  3177 1
 8042  3169  3178 1
 8043  3170  3179 1
 8044  3172  3180 1
 8045  3173  3181 1
 8046  3174  3182 1
 8047  3175  3183 1
 8048  3176  3184 1
 8049  3185  3193 1
 8050  3185  3194 1
 8051  3186  3195 1
 8052  3188  3196 1
 8053  3189  3197 1
 8054  3190  3198 1
 8055  3191  3199 1
 8056  3192  3200 1
 8057  3201  3209 1
 8058  3201  3210 1
 8059  3202  3211 1
 8060  3204  3212 1
 8061  3205  3213 1
 8062  3206  3214 1
 8063  3207  3215 1
 8064  3208  3216 1
 8065  3217  3225 1
 8066  3217  3226 1
 8067  3218  3227 1
 8068  3220  3228 1
 8069  3221  3229 1
 8070  3222  3230 1
 8071  3223  3231 1
 8072  3224  3232 1
 8073  3233  3241 1
 8074  3233  3242 1
 8075  3234  3243 1
 8076  3236  3244 1
 8077  3237  3245 1
 8078  3238  3246 1
 8079  3239  3247 1
 8080  3240  3248 1
 8081  3249  3257 1
 8082  3249  3258 1
 8083  3250  3259 1
 8084  3252  3260 1
 8085  3253  3261 1
 8086  3254  3262 1
 8087  3255  3263 1
 8088  3256  3264 1
 8089  3265  3273 1
 8090  3265  3274 1
 8091  3266  3275 1
 8092  3268  3276 1
 8093  3269  3277 1
 8094  3270  3278 1
 8095  3271  3279 1
 8096  3272  3280 1
 8097  3281  3289 1
 8098  3281  3290 1
 8099  3282  3291 1
 8100  3284  3292 1
 8101  3285  3293 1
 8102  3286  3294 1
 8103  3287  3295 1
 8104  3288  3296 1
 8105  3297  3305 1
 8106  3297  3306 1
 8107  3298  3307 1
 8108  3300  3308 1
 8109  3301  3309 1
 8110  3302  3310 1
 8111  3303  3311 1
 8112  3304  3312 1
 8113  3313  3321 1
 8114  3313  3322 1
 8115  3314  3323 1
 8116  3316  3324 1
 8117  3317  3325 1
 8118  3318  3326 1
 8119  3319  3327 1
 8120  3320  3328 1
 8121  3329  3337 1
 8122  3329  3338 1
 8123  3330  3339 1
 8124  3332  3340 1
 8125  3333  3341 1
 8126  3334  3342 1
 8127  3335  3343 1
 8128  3336  3344 1
 8129  3345  3353 1
 8130  3345  3354 1
 8131  3346  3355 1
 8132  3348  3356 1
 8133  3349  3357 1
 8134  3350  3358 1
 8135  3351  3359 1
 8136  3352  3360 1
 8137  3361  3369 1
 8138  3361  3370 1
 8139  3362  3371 1
 8140  3364  3372 1
 8141  3365  3373 1
 8142  3366  3374 1
 8143  3367  3375 1
 8144  3368  3376 1
 8145  3377  3385 1
 8146  3377  3386 1
 8147  3378  3387 1
 8148  3380  3388 1
 8149  3381  3389 1
 8150  3382  3390 1
 8151  3383  3391 1
 8152  3384  3392 1
 8153  3393  3401 1
 8154  3393  3402 1
 8155  3394  3403 1
 8156  3396  3404 1
 8157  3397  3405 1
 8158  3398  3406 1
 8159  3399  3407 1
 8160  3400  3408 1
 8161  3409  3417 1
 8162  3409  3418 1
 8163  3410  3419 1
 8164  3412  3420 1
 8165  3413  3421 1
 8166  3414  3422 1
 8167  3415  3423 1
 8168  3416  3424 1
 8169  3425  3433 1
 8170  3425  3434 1
 8171  3426  3435 1
 8172  3428  3436 1
 8173  3429  3437 1
 8174  3430  3438 1
 8175  3431  3439 1
 8176  3432  3440 1
 8177  3441  3449 1
 8178  3441  3450 1
 8179  3442  3451 1
 8180  3444  3452 1
 8181  3445  3453 1
 8182  3446  3454 1
 8183  3447  3455 1
 8184  3448  3456 1
 8185  3457  3465 1
 8186  3457  3466 1
 8187  3458  3467 1
 8188  3460  3468 1
 8189  3461  3469 1
 8190  3462  3470 1
 8191  3463  3471 1
 8192  3464  3472 1
 8193  3473  3481 1
 8194  3473  3482 1
 8195  3474  3483 1
 8196  3476  3484 1
 8197  3477  3485 1
 8198  3478  3486 1
 8199  3479  3487 1
 8200  3480  3488 1
 8201  3489  3497 1
 8202  3489  3498 1
 8203  3490  3499 1
 8204  3492  3500 1
 8205  3493  3501 1
 8206  3494  3502 1
 8207  3495  3503 1
 8208  3496  3504 1
 8209  3505  3513 1
 8210  3505  3514 1
 8211  3506  3515 1
 8212  3508  3516 1
 8213  3509  3517 1
 8214  3510  3518 1
 8215  3511  3519 1
 8216  3512  3520 1
 8217  3521  3529 1
 8218  3521  3530 1
 8219  3522  3531 1
 8220  3524  3532 1
 8221  3525  3533 1
 8222  3526  3534 1
 8223  3527  3535 1
 8224  3528  3536 1
 8225  3537  3545 1
 8226  3537  3546 1
 8227  3538  3547 1
 8228  3540  3548 1
 8229  3541  3549 1
 8230  3542  3550 1
 8231  3543  3551 1
 8232  3544  3552 1
 8233  3553  3561 1
 8234  3553  3562 1
 8235  3554  3563 1
 8236  3556  3564 1
 8237  3557  3565 1
 8238  3558  3566 1
 8239  3559  3567 1
 8240  3560  3568 1
 8241  3569  3577 1
 8242  3569  3578 1
 8243  3570  3579 1
 8244  3572  3580 1
 8245  3573  3581 1
 8246  3574  3582 1
 8247  3575  3583 1
 8248  3576  3584 1
 8249  3585  3593 1
 8250  3585  3594 1
 8251  3586  3595 1
 8252  3588  3596 1
 8253  3589  3597 1
 8254  3590  3598 1
 8255  3591  3599 1
 8256  3592  3600 1
 8257  3601  3609 1
 8258  3601  3610 1
 8259  3602  3611 1
 8260  3604  3612 1
 8261  3605  3613 1
 8262  3606  3614 1
 8263  3607  3615 1
 8264  3608  3616 1
 8265  3617  3625 1
 8266  3617  3626 1
 8267  3618  3627 1
 8268  3620  3628 1
 8269  3621  3629 1
 8270  3622  3630 1
 8271  3623  3631 1
 8272  3624  3632 1
 8273  3633  3641 1
 8274  3633  3642 1
 8275  3634  3643 1
 8276  3636  3644 1
 8277  3637  3645 1
 8278  3638  3646 1
 8279  3639  3647 1
 8280  3640  3648 1
 8281  3649  3657 1
 8282  3649  3658 1
 8283  3650  3659 1
 8284  3652  3660 1
 8285  3653  3661 1
 8286  3654  3662 1
 8287  3655  3663 1
 8288  3656  3664 1
 8289  3665  3673 1
 8290  3665  3674 1
 8291  3666  3675 1
 8292  3668  3676 1
 8293  3669  3677 1
 8294  3670  3678 1
 8295  3671  3679 1
 8296  3672  3680 1
 8297  3681  3689 1
 8298  3681  3690 1
 8299  3682  3691 1
 8300  3684  3692 1
 8301  3685  3693 1
 8302  3686  3694 1
 8303  3687  3695 1
 8304  3688  3696 1
 8305  3697  3705 1
 8306  3697  3706 1
 8307  3698  3707 1
 8308  3700  3708 1
 8309  3701  3709 1
 8310  3702  3710 1
 8311  3703  3711 1
 8312  3704  3712 1
 8313  3713  3721 1
 8314  3713  3722 1
 8315  3714  3723 1
 8316  3716  3724 1
 8317  3717  3725 1
 8318  3718  3726 1
 8319  3719  3727 1
 8320  3720  3728 1
 8321  3729  3737 1
 8322  3729  3738 1
 8323  3730  3739 1
 8324  3732  3740 1
 8325  3733  3741 1
 8326  3734  3742 1
 8327  3735  3743 1
 8328  3736  3744 1
 8329  3745  3753 1
 8330  3745  3754 1
 8331  3746  3755 1
 8332  3748  3756 1
 8333  3749  3757 1
 8334  3750  3758 1
 8335  3751  3759 1
 8336  3752  3760 1
 8337  3761  3769 1
 8338  3761  3770 1
 8339  3762  3771 1
 8340  3764  3772 1
 8341  3765  3773 1
 8342  3766  3774 1
 8343  3767  3775 1
 8344  3768  3776 1
 8345  3777  3785 1
 8346  3777  3786 1
 8347  3778  3787 1
 8348  3780  3788 1
 8349  3781  3789 1
 8350  3782  3790 1
 8351  3783  3791 1
 8352  3784  3792 1
 8353  3793  3801 1
 8354  3793  3802 1
 8355  3794  3803 1
 8356  3796  3804 1
 8357  3797  3805 1
 8358  3798  3806 1
 8359  3799  3807 1
 8360  3800  3808 1
 8361  3809  3817 1
 8362  3809  3818 1
 8363  3810  3819 1
 8364  3812  3820 1
 8365  3813  3821 1
 8366  3814  3822 1
 8367  3815  3823 1
 8368  3816  3824 1
 8369  3825  3833 1
 8370  3825  3834 1
 8371  3826  3835 1
 8372  3828  3836 1
 8373  3829  3837 1
 8374  3830  3838 1
 8375  3831  3839 1
 8376  3832  3840 1
 8377  3841  3849 1
 8378  3841  3850 1
 8379  3842  3851 1
 8380  3844  3852 1
 8381  3845  3853 1
 8382  3846  3854 1
 8383  3847  3855 1
 8384  3848  3856 1
 8385  3857  3865 1
 8386  3857  3866 1
 8387  3858  3867 1
 8388  3860  3868 1
 8389  3861  3869 1
 8390  3862  3870 1
 8391  3863  3871 1
 8392  3864  3872 1
 8393  3873  3881 1
 8394  3873  3882 1
 8395  3874  3883 1
 8396  3876  3884 1
 8397  3877  3885 1
 8398  3878  3886 1
 8399  3879  3887 1
 8400  3880  3888 1
 8401  3889  3897 1
 8402  3889  3898 1
 8403  3890  3899 1
 8404  3892  3900 1
 8405  3893  3901 1
 8406  3894  3902 1
 8407  3895  3903 1
 8408  3896  3904 1
 8409  3905  3913 1
 8410  3905  3914 1
 8411  3906  3915 1
 8412  3908  3916 1
 8413  3909  3917 1
 8414  3910  3918 1
 8415  3911  3919 1
 8416  3912  3920 1
 8417  3921  3929 1
 8418  3921  3930 1
 8419  3922  3931 1
 8420  3924  3932 1
 8421  3925  3933 1
 8422  3926  3934 1
 8423  3927  3935 1
 8424  3928  3936 1
 8425  3937  3945 1
 8426  3937  3946 1
 8427  3938  3947 1
 8428  3940  3948 1
 8429  3941  3949 1
 8430  3942  3950 1
 8431  3943  3951 1
 8432  3944  3952 1
 8433  3953  3961 1
 8434  3953  3962 1
 8435  3954  3963 1
 8436  3956  3964 1
 8437  3957  3965 1
 8438  3958  3966 1
 8439  3959  3967 1
 8440  3960  3968 1
 8441  3969  3977 1
 8442  3969  3978 1
 8443  3970  3979 1
 8444  3972  3980 1
 8445  3973  3981 1
 8446  3974  3982 1
 8447  3975  3983 1
 8448  3976  3984 1
 8449  3985  3993 1
 8450  3985  3994 1
 8451  3986  3995 1
 8452  3988  3996 1
 8453  3989  3997 1
 8454  3990  3998 1
 8455  3991  3999 1
 8456  3992  4000 1
 8457  4001  4009 1
 8458  4001  4010 1
 8459  4002  4011 1
 8460  4004  4012 1
 8461  4005  4013 1
 8462  4006  4014 1
 8463  4007  4015 1
 8464  4008  4016 1
 8465  4017  4025 1
 8466  4017  4026 1
 8467  4018  4027 1
 8468  4020  4028 1
 8469  4021  4029 1
 8470  4022  4030 1
 8471  4023  4031 1
 8472  4024  4032 1
 8473  4033  4041 1
 8474  4033  4042 1
 8475  4034  4043 1
 8476  4036  4044 1
 8477  4037  4045 1
 8478  4038  4046 1
 8479  4039  4047 1
 8480  4040  4048 1
 8481  4049  4057 1
 8482  4049  4058 1
 8483  4050  4059 1
 8484  4052  4060 1
 8485  4053  4061 1
 8486  4054  4062 1
 8487  4055  4063 1
 8488  4056  4064 1
 8489  4065  4073 1
 8490  4065  4074 1
 8491  4066  4075 1
 8492  4068  4076 1
 8493  4069  4077 1
 8494  4070  4078 1
 8495  4071  4079 1
 8496  4072  4080 1
 8497  4081  4089 1
 8498  4081  4090 1
 8499  4082  4091 1
 8500  4084  4092 1
 8501  4085  4093 1
 8502  4086  4094 1
 8503  4087  4095 1
 8504  4088  4096 1
 8505  4097  4105 1
 8506  4097  4106 1
 8507  4098  4107 1
 8508  4100  4108 1
 8509  4101  4109 1
 8510  4102  4110 1
 8511  4103  4111 1
 8512  4104  4112 1
 8513  4113  4121 1
 8514  4113  4122 1
 8515  4114  4123 1
 8516  4116  4124 1
 8517  4117  4125 1
 8518  4118  4126 1
 8519  4119  4127 1
 8520  4120  4128 1
 8521  4129  4137 1
 8522  4129  4138 1
 8523  4130  4139 1
 8524  4132  4140 1
 8525  4133  4141 1
 8526  4134  4142 1
 8527  4135  4143 1
 8528  4136  4144 1
 8529  4145  4153 1
 8530  4145  4154 1
 8531  4146  4155 1
 8532  4148  4156 1
 8533  4149  4157 1
 8534  4150  4158 1
 8535  4151  4159 1
 8536  4152  4160 1
 8537  4161  4169 1
 8538  4161  4170 1
 8539  4162  4171 1
 8540  4164  4172 1
 8541  4165  4173 1
 8542  4166  4174 1
 8543  4167  4175 1
 8544  4168  4176 1
 8545  4177  4185 1
 8546  4177  4186 1
 8547  4178  4187 1
 8548  4180  4188 1
 8549  4181  4189 1
 8550  4182  4190 1
 8551  4183  4191 1
 8552  4184  4192 1
 8553  4193  4201 1
 8554  4193  4202 1
 8555  4194  4203 1
 8556  4196  4204 1
 8557  4197  4205 1
 8558  4198  4206 1
 8559  4199  4207 1
 8560  4200  4208 1
 8561  4209  4217 1
 8562  4209  4218 1
 8563  4210  4219 1
 8564  4212  4220 1
 8565  4213  4221 1
 8566  4214  4222 1
 8567  4215  4223 1
 8568  4216  4224 1
 8569  4225  4233 1
 8570  4225  4234 1
 8571  4226  4235 1
 8572  4228  4236 1
 8573  4229  4237 1
 8574  4230  4238 1
 8575  4231  4239 1
 8576  4232  4240 1
 8577  4241  4249 1
 8578  4241  4250 1
 8579  4242  4251 1
 8580  4244  4252 1
 8581  4245  4253 1
 8582  4246  4254 1
 8583  4247  4255 1
 8584  4248  4256 1
 8585  4257  4265 1
 8586  4257  4266 1
 8587  4258  4267 1
 8588  4260  4268 1
 8589  4261  4269 1
 8590  4262  4270 1
 8591  4263  4271 1
 8592  4264  4272 1
 8593  4273  4281 1
 8594  4273  4282 1
 8595  4274  4283 1
 8596  4276  4284 1
 8597  4277  4285 1
 8598  4278  4286 1
 8599  4279  4287 1
 8600  4280  4288 1
 8601  4289  4297 1
 8602  4289  4298 1
 8603  4290  4299 1
 8604  4292  4300 1
 8605  4293  4301 1
 8606  4294  4302 1
 8607  4295  4303 1
 8608  4296  4304 1
 8609  4305  4313 1
 8610  4305  4314 1
 8611  4306  4315 1
 8612  4308  4316 1
 8613  4309  4317 1
 8614  4310  4318 1
 8615  4311  4319 1
 8616  4312  4320 1
 8617  4321  4329 1
 8618  4321  4330 1
 8619  4322  4331 1
 8620  4324  4332 1
 8621  4325  4333 1
 8622  4326  4334 1
 8623  4327  4335 1
 8624  4328  4336 1
 8625  4337  4345 1
 8626  4337  4346 1
 8627  4338  4347 1
 8628  4340  4348 1
 8629  4341  4349 1
 8630  4342  4350 1
 8631  4343  4351 1
 8632  4344  4352 1
 8633  4353  4361 1
 8634  4353  4362 1
 8635  4354  4363 1
 8636  4356  4364 1
 8637  4357  4365 1
 8638  4358  4366 1
 8639  4359  4367 1
 8640  4360  4368 1
 8641  4369  4377 1
 8642  4369  4378 1
 8643  4370  4379 1
 8644  4372  4380 1
 8645  4373  4381 1
 8646  4374  4382 1
 8647  4375  4383 1
 8648  4376  4384 1
 8649  4385  4393 1
 8650  4385  4394 1
 8651  4386  4395 1
 8652  4388  4396 1
 8653  4389  4397 1
 8654  4390  4398 1
 8655  4391  4399 1
 8656  4392  4400 1
 8657  4401  4409 1
 8658  4401  4410 1
 8659  4402  4411 1
 8660  4404  4412 1
 8661  4405  4413 1
 8662  4406  4414 1
 8663  4407  4415 1
 8664  4408  4416 1
 8665  4417  4425 1
 8666  4417  4426 1
 8667  4418  4427 1
 8668  4420  4428 1
 8669  4421  4429 1
 8670  4422  4430 1
 8671  4423  4431 1
 8672  4424  4432 1
 8673  4433  4441 1
 8674  4433  4442 1
 8675  4434  4443 1
 8676  4436  4444 1
 8677  4437  4445 1
 8678  4438  4446 1
 8679  4439  4447 1
 8680  4440  4448 1
 8681  4449  4457 1
 8682  4449  4458 1
 8683  4450  4459 1
 8684  4452  4460 1
 8685  4453  4461 1
 8686  4454  4462 1
 8687  4455  4463 1
 8688  4456  4464 1
 8689  4465  4473 1
 8690  4465  4474 1
 8691  4466  4475 1
 8692  4468  4476 1
 8693  4469  4477 1
 8694  4470  4478 1
 8695  4471  4479 1
 8696  4472  4480 1
 8697  4481  4489 1
 8698  4481  4490 1
 8699  4482  4491 1
 8700  4484  4492 1
 8701  4485  4493 1
 8702  4486  4494 1
 8703  4487  4495 1
 8704  4488  4496 1
 8705  4497  4505 1
 8706  4497  4506 1
 8707  4498  4507 1
 8708  4500  4508 1
 8709  4501  4509 1
 8710  4502  4510 1
 8711  4503  4511 1
 8712  4504  4512 1
 8713  4513  4521 1
 8714  4513  4522 1
 8715  4514  4523 1
 8716  4516  4524 1
 8717  4517  4525 1
 8718  4518  4526 1
 8719  4519  4527 1
 8720  4520  4528 1
 8721  4529  4537 1
 8722  4529  4538 1
 8723  4530  4539 1
 8724  4532  4540 1
 8725  4533  4541 1
 8726  4534  4542 1
 8727  4535  4543 1
 8728  4536  4544 1
 8729  4545  4553 1
 8730  4545  4554 1
 8731  4546  4555 1
 8732  4548  4556 1
 8733  4549  4557 1
 8734  4550  4558 1
 8735  4551  4559 1
 8736  4552  4560 1
 8737  4561  4569 1
 8738  4561  4570 1
 8739  4562  4571 1
 8740  4564  4572 1
 8741  4565  4573 1
 8742  4566  4574 1
 8743  4567  4575 1
 8744  4568  4576 1
 8745  4577  4585 1
 8746  4577  4586 1
 8747  4578  4587 1
 8748  4580  4588 1
 8749  4581  4589 1
 8750  4582  4590 1
 8751  4583  4591 1
 8752  4584  4592 1
 8753  4593  4601 1
 8754  4593  4602 1
 8755  4594  4603 1
 8756  4596  4604 1
 8757  4597  4605 1
 8758  4598  4606 1
 8759  4599  4607 1
 8760  4600  4608 1
 8761  4609  4617 1
 8762  4609  4618 1
 8763  4610  4619 1
 8764  4612  4620 1
 8765  4613  4621 1
 8766  4614  4622 1
 8767  4615  4623 1
 8768  4616  4624 1
 8769  4625  4633 1
 8770  4625  4634 1
 8771  4626  4635 1
 8772  4628  4636 1
 8773  4629  4637 1
 8774  4630  4638 1
 8775  4631  4639 1
 8776  4632  4640 1
 8777  4641  4649 1
 8778  4641  4650 1
 8779  4642  4651 1
 8780  4644  4652 1
 8781  4645  4653 1
 8782  4646  4654 1
 8783  4647  4655 1
 8784  4648  4656 1
 8785  4657  4665 1
 8786  4657  4666 1
 8787  4658  4667 1
 8788  4660  4668 1
 8789  4661  4669 1
 8790  4662  4670 1
 8791  4663  4671 1
 8792  4664  4672 1
 8793  4673  4681 1
 8794  4673  4682 1
 8795  4674  4683 1
 8796  4676  4684 1
 8797  4677  4685 1
 8798  4678  4686 1
 8799  4679  4687 1
 8800  4680  4688 1
 8801  4689  4697 1
 8802  4689  4698 1
 8803  4690  4699 1
 8804  4692  4700 1
 8805  4693  4701 1
 8806  4694  4702 1
 8807  4695  4703 1
 8808  4696  4704 1
 8809  4705  4713 1
 8810  4705  4714 1
 8811  4706  4715 1
 8812  4708  4716 1
 8813  4709  4717 1
 8814  4710  4718 1
 8815  4711  4719 1
 8816  4712  4720 1
 8817  4721  4729 1
 8818  4721  4730 1
 8819  4722  4731 1
 8820  4724  4732 1
 8821  4725  4733 1
 8822  4726  4734 1
 8823  4727  4735 1
 8824  4728  4736 1
 8825  4737  4745 1
 8826  4737  4746 1
 8827  4738  4747 1
 8828  4740  4748 1
 8829  4741  4749 1
 8830  4742  4750 1
 8831  4743  4751 1
 8832  4744  4752 1
 8833  4753  4761 1
 8834  4753  4762 1
 8835  4754  4763 1
 8836  4756  4764 1
 8837  4757  4765 1
 8838  4758  4766 1
 8839  4759  4767 1
 8840  4760  4768 1
 8841  4769  4777 1
 8842  4769  4778 1
 8843  4770  4779 1
 8844  4772  4780 1
 8845  4773  4781 1
 8846  4774  4782 1
 8847  4775  4783 1
 8848  4776  4784 1
 8849  4785  4793 1
 8850  4785  4794 1
 8851  4786  4795 1
 8852  4788  4796 1
 8853  4789  4797 1
 8854  4790  4798 1
 8855  4791  4799 1
 8856  4792  4800 1
 8857  4801  4809 1
 8858  4801  4810 1
 8859  4802  4811 1
 8860  4804  4812 1
 8861  4805  4813 1
 8862  4806  4814 1
 8863  4807  4815 1
 8864  4808  4816 1
 8865  4817  4825 1
 8866  4817  4826 1
 8867  4818  4827 1
 8868  4820  4828 1
 8869  4821  4829 1
 8870  4822  4830 1
 8871  4823  4831 1
 8872  4824  4832 1
 8873  4833  4841 1
 8874  4833  4842 1
 8875  4834  4843 1
 8876  4836  4844 1
 8877  4837  4845 1
 8878  4838  4846 1
 8879  4839  4847 1
 8880  4840  4848 1
 8881  4849  4857 1
 8882  4849  4858 1
 8883  4850  4859 1
 8884  4852  4860 1
 8885  4853  4861 1
 8886  4854  4862 1
 8887  4855  4863 1
 8888  4856  4864 1
 8889  4865  4873 1
 8890  4865  4874 1
 8891  4866  4875 1
 8892  4868  4876 1
 8893  4869  4877 1
 8894  4870  4878 1
 8895  4871  4879 1
 8896  4872  4880 1
 8897  4881  4889 1
 8898  4881  4890 1
 8899  4882  4891 1
 8900  4884  4892 1
 8901  4885  4893 1
 8902  4886  4894 1
 8903  4887  4895 1
 8904  4888  4896 1
 8905  4897  4905 1
 8906  4897  4906 1
 8907  4898  4907 1
 8908  4900  4908 1
 8909  4901  4909 1
 8910  4902  4910 1
 8911  4903  4911 1
 8912  4904  4912 1
 8913  4913  4921 1
 8914  4913  4922 1
 8915  4914  4923 1
 8916  4916  4924 1
 8917  4917  4925 1
 8918  4918  4926 1
 8919  4919  4927 1
 8920  4920  4928 1
 8921  4929  4937 1
 8922  4929  4938 1
 8923  4930  4939 1
 8924  4932  4940 1
 8925  4933  4941 1
 8926  4934  4942 1
 8927  4935  4943 1
 8928  4936  4944 1
 8929  4945  4953 1
 8930  4945  4954 1
 8931  4946  4955 1
 8932  4948  4956 1
 8933  4949  4957 1
 8934  4950  4958 1
 8935  4951  4959 1
 8936  4952  4960 1
 8937  4961  4969 1
 8938  4961  4970 1
 8939  4962  4971 1
 8940  4964  4972 1
 8941  4965  4973 1
 8942  4966  4974 1
 8943  4967  4975 1
 8944  4968  4976 1
 8945  4977  4985 1
 8946  4977  4986 1
 8947  4978  4987 1
 8948  4980  4988 1
 8949  4981  4989 1
 8950  4982  4990 1
 8951  4983  4991 1
 8952  4984  4992 1
 8953  4993  5001 1
 8954  4993  5002 1
 8955  4994  5003 1
 8956  4996  5004 1
 8957  4997  5005 1
 8958  4998  5006 1
 8959  4999  5007 1
 8960  5000  5008 1
 8961  5009  5017 1
 8962  5009  5018 1
 8963  5010  5019 1
 8964  5012  5020 1
 8965  5013  5021 1
 8966  5014  5022 1
 8967  5015  5023 1
 8968  5016  5024 1
 8969  5025  5033 1
 8970  5025  5034 1
 8971  5026  5035 1
 8972  5028  5036 1
 8973  5029  5037 1
 8974  5030  5038 1
 8975  5031  5039 1
 8976  5032  5040 1
 8977  5041  5049 1
 8978  5041  5050 1
 8979  5042  5051 1
 8980  5044  5052 1
 8981  5045  5053 1
 8982  5046  5054 1
 8983  5047  5055 1
 8984  5048  5056 1
 8985  5057  5065 1
 8986  5057  5066 1
 8987  5058  5067 1
 8988  5060  5068 1
 8989  5061  5069 1
 8990  5062  5070 1
 8991  5063  5071 1
 8992  5064  5072 1
 8993  5073  5081 1
 8994  5073  5082 1
 8995  5074  5083 1
 8996  5076  5084 1
 8997  5077  5085 1
 8998  5078  5086 1
 8999  5079  5087 1
 9000  5080  5088 1
 9001  5089  5097 1
 9002  5089  5098 1
 9003  5090  5099 1
 9004  5092  5100 1
 9005  5093  5101 1
 9006  5094  5102 1
 9007  5095  5103 1
 9008  5096  5104 1
 9009  5105  5113 1
 9010  5105  5114 1
 9011  5106  5115 1
 9012  5108  5116 1
 9013  5109  5117 1
 9014  5110  5118 1
 9015  5111  5119 1
 9016  5112  5120 1
 9017  5121  5129 1
 9018  5121  5130 1
 9019  5122  5131 1
 9020  5124  5132 1
 9021  5125  5133 1
 9022  5126  5134 1
 9023  5127  5135 1
 9024  5128  5136 1
 9025  5137  5145 1
 9026  5137  5146 1
 9027  5138  5147 1
 9028  5140  5148 1
 9029  5141  5149 1
 9030  5142  5150 1
 9031  5143  5151 1
 9032  5144  5152 1
 9033  5153  5161 1
 9034  5153  5162 1
 9035  5154  5163 1
 9036  5156  5164 1
 9037  5157  5165 1
 9038  5158  5166 1
 9039  5159  5167 1
 9040  5160  5168 1
 9041  5169  5177 1
 9042  5169  5178 1
 9043  5170  5179 1
 9044  5172  5180 1
 9045  5173  5181 1
 9046  5174  5182 1
 9047  5175  5183 1
 9048  5176  5184 1
 9049  5185  5193 1
 9050  5185  5194 1
 9051  5186  5195 1
 9052  5188  5196 1
 9053  5189  5197 1
 9054  5190  5198 1
 9055  5191  5199 1
 9056  5192  5200 1
 9057  5201  5209 1
 9058  5201  5210 1
 9059  5202  5211 1
 9060  5204  5212 1
 9061  5205  5213 1
 9062  5206  5214 1
 9063  5207  5215 1
 9064  5208  5216 1
 9065  5217  5225 1
 9066  5217  5226 1
 9067  5218  5227 1
 9068  5220  5228 1
 9069  5221  5229 1
 9070  5222  5230 1
 9071  5223  5231 1
 9072  5224  5232 1
 9073  5233  5241 1
 9074  5233  5242 1
 9075  5234  5243 1
 9076  5236  5244 1
 9077  5237  5245 1
 9078  5238  5246 1
 9079  5239  5247 1
 9080  5240  5248 1
 9081  5249  5257 1
 9082  5249  5258 1
 9083  5250  5259 1
 9084  5252  5260 1
 9085  5253  5261 1
 9086  5254  5262 1
 9087  5255  5263 1
 9088  5256  5264 1
 9089  5265  5273 1
 9090  5265  5274 1
 9091  5266  5275 1
 9092  5268  5276 1
 9093  5269  5277 1
 9094  5270  5278 1
 9095  5271  5279 1
 9096  5272  5280 1
 9097  5281  5289 1
 9098  5281  5290 1
 9099  5282  5291 1
 9100  5284  5292 1
 9101  5285  5293 1
 9102  5286  5294 1
 9103  5287  5295 1
 9104  5288  5296 1
 9105  5297  5305 1
 9106  5297  5306 1
 9107  5298  5307 1
 9108  5300  5308 1
 9109  5301  5309 1
 9110  5302  5310 1
 9111  5303  5311 1
 9112  5304  5312 1
 9113  5313  5321 1
 9114  5313  5322 1
 9115  5314  5323 1
 9116  5316  5324 1
 9117  5317  5325 1
 9118  5318  5326 1
 9119  5319  5327 1
 9120  5320  5328 1
 9121  5329  5337 1
 9122  5329  5338 1
 9123  5330  5339 1
 9124  5332  5340 1
 9125  5333  5341 1
 9126  5334  5342 1
 9127  5335  5343 1
 9128  5336  5344 1
 9129  5345  5353 1
 9130  5345  5354 1
 9131  5346  5355 1
 9132  5348  5356 1
 9133  5349  5357 1
 9134  5350  5358 1
 9135  5351  5359 1
 9136  5352  5360 1
 9137  5361  5369 1
 9138  5361  5370 1
 9139  5362  5371 1
 9140  5364  5372 1
 9141  5365  5373 1
 9142  5366  5374 1
 9143  5367  5375 1
 9144  5368  5376 1
 9145  5377  5385 1
 9146  5377  5386 1
 9147  5378  5387 1
 9148  5380  5388 1
 9149  5381  5389 1
 9150  5382  5390 1
 9151  5383  5391 1
 9152  5384  5392 1
 9153  5393  5401 1
 9154  5393  5402 1
 9155  5394  5403 1
 9156  5396  5404 1
 9157  5397  5405 1
 9158  5398  5406 1
 9159  5399  5407 1
 9160  5400  5408 1
 9161  5409  5417 1
 9162  5409  5418 1
 9163  5410  5419 1
 9164  5412  5420 1
 9165  5413  5421 1
 9166  5414  5422 1
 9167  5415  5423 1
 9168  5416  5424 1
 9169  5425  5433 1
 9170  5425  5434 1
 9171  5426  5435 1
 9172  5428  5436 1
 9173  5429  5437 1
 9174  5430  5438 1
 9175  5431  5439 1
 9176  5432  5440 1
 9177  5441  5449 1
 9178  5441  5450 1
 9179  5442  5451 1
 9180  5444  5452 1
 9181  5445  5453 1
 9182  5446  5454 1
 9183  5447  5455 1
 9184  5448  5456 1
 9185  5457  5465 1
 9186  5457  5466 1
 9187  5458  5467 1
 9188  5460  5468 1
 9189  5461  5469 1
 9190  5462  5470 1
 9191  5463  5471 1
 9192  5464  5472 1
 9193  5473  5481 1
 9194  5473  5482 1
 9195  5474  5483 1
 9196  5476  5484 1
 9197  5477  5485 1
 9198  5478  5486 1
 9199  5479  5487 1
 9200  5480  5488 1
 9201  5489  5497 1
 9202  5489  5498 1
 9203  5490  5499 1
 9204  5492  5500 1
 9205  5493  5501 1
 9206  5494  5502 1
 9207  5495  5503 1
 9208  5496  5504 1
 9209  5505  5513 1
 9210  5505  5514 1
 9211  5506  5515 1
 9212  5508  5516 1
 9213  5509  5517 1
 9214  5510  5518 1
 9215  5511  5519 1
 9216  5512  5520 1
 9217  5521  5529 1
 9218  5521  5530 1
 9219  5522  5531 1
 9220  5524  5532 1
 9221  5525  5533 1
 9222  5526  5534 1
 9223  5527  5535 1
 9224  5528  5536 1
 9225  5537  5545 1
 9226  5537  5546 1
 9227  5538  5547 1
 9228  5540  5548 1
 9229  5541  5549 1
 9230  5542  5550 1
 9231  5543  5551 1
 9232  5544  5552 1
 9233  5553  5561 1
 9234  5553  5562 1
 9235  5554  5563 1
 9236  5556  5564 1
 9237  5557  5565 1
 9238  5558  5566 1
 9239  5559  5567 1
 9240  5560  5568 1
 9241  5569  5577 1
 9242  5569  5578 1
 9243  5570  5579 1
 9244  5572  5580 1
 9245  5573  5581 1
 9246  5574  5582 1
 9247  5575  5583 1
 9248  5576  5584 1
 9249  5585  5593 1
 9250  5585  5594 1
 9251  5586  5595 1
 9252  5588  5596 1
 9253  5589  5597 1
 9254  5590  5598 1
 9255  5591  5599 1
 9256  5592  5600 1
 9257  5601  5609 1
 9258  5601  5610 1
 9259  5602  5611 1
 9260  5604  5612 1
 9261  5605  5613 1
 9262  5606  5614 1
 9263  5607  5615 1
 9264  5608  5616 1
 9265  5617  5625 1
 9266  5617  5626 1
 9267  5618  5627 1
 9268  5620  5628 1
 9269  5621  5629 1
 9270  5622  5630 1
 9271  5623  5631 1
 9272  5624  5632 1
 9273  5633  5641 1
 9274  5633  5642 1
 9275  5634  5643 1
 9276  5636  5644 1
 9277  5637  5645 1
 9278  5638  5646 1
 9279  5639  5647 1
 9280  5640  5648 1
 9281  5649  5657 1
 9282  5649  5658 1
 9283  5650  5659 1
 9284  5652  5660 1
 9285  5653  5661 1
 9286  5654  5662 1
 9287  5655  5663 1
 9288  5656  5664 1
 9289  5665  5673 1
 9290  5665  5674 1
 9291  5666  5675 1
 9292  5668  5676 1
 9293  5669  5677 1
 9294  5670  5678 1
 9295  5671  5679 1
 9296  5672  5680 1
 9297  5681  5689 1
 9298  5681  5690 1
 9299  5682  5691 1
 9300  5684  5692 1
 9301  5685  5693 1
 9302  5686  5694 1
 9303  5687  5695 1
 9304  5688  5696 1
 9305  5697  5705 1
 9306  5697  5706 1
 9307  5698  5707 1
 9308  5700  5708 1
 9309  5701  5709 1
 9310  5702  5710 1
 9311  5703  5711 1
 9312  5704  5712 1
 9313  5713  5721 1
 9314  5713  5722 1
 9315  5714  5723 1
 9316  5716  5724 1
 9317  5717  5725 1
 9318  5718  5726 1
 9319  5719  5727 1
 9320  5720  5728 1
 9321  5729  5737 1
 9322  5729  5738 1
 9323  5730  5739 1
 9324  5732  5740 1
 9325  5733  5741 1
 9326  5734  5742 1
 9327  5735  5743 1
 9328  5736  5744 1
 9329  5745  5753 1
 9330  5745  5754 1
 9331  5746  5755 1
 9332  5748  5756 1
 9333  5749  5757 1
 9334  5750  5758 1
 9335  5751  5759 1
 9336  5752  5760 1
 9337  5761  5769 1
 9338  5761  5770 1
 9339  5762  5771 1
 9340  5764  5772 1
 9341  5765  5773 1
 9342  5766  5774 1
 9343  5767  5775 1
 9344  5768  5776 1
 9345  5777  5785 1
 9346  5777  5786 1
 9347  5778  5787 1
 9348  5780  5788 1
 9349  5781  5789 1
 9350  5782  5790 1
 9351  5783  5791 1
 9352  5784  5792 1
 9353  5793  5801 1
 9354  5793  5802 1
 9355  5794  5803 1
 9356  5796  5804 1
 9357  5797  5805 1
 9358  5798  5806 1
 9359  5799  5807 1
 9360  5800  5808 1
 9361  5809  5817 1
 9362  5809  5818 1
 9363  5810  5819 1
 9364  5812  5820 1
 9365  5813  5821 1
 9366  5814  5822 1
 9367  5815  5823 1
 9368  5816  5824 1
 9369  5825  5833 1
 9370  5825  5834 1
 9371  5826  5835 1
 9372  5828  5836 1
 9373  5829  5837 1
 9374  5830  5838 1
 9375  5831  5839 1
 9376  5832  5840 1
 9377  5841  5849 1
 9378  5841  5850 1
 9379  5842  5851 1
 9380  5844  5852 1
 9381  5845  5853 1
 9382  5846  5854 1
 9383  5847  5855 1
 9384  5848  5856 1
 9385  5857  5865 1
 9386  5857  5866 1
 9387  5858  5867 1
 9388  5860  5868 1
 9389  5861  5869 1
 9390  5862  5870 1
 9391  5863  5871 1
 9392  5864  5872 1
 9393  5873  5881 1
 9394  5873  5882 1
 9395  5874  5883 1
 9396  5876  5884 1
 9397  5877  5885 1
 9398  5878  5886 1
 9399  5879  5887 1
 9400  5880  5888 1
 9401  5889  5897 1
 9402  5889  5898 1
 9403  5890  5899 1
 9404  5892  5900 1
 9405  5893  5901 1
 9406  5894  5902 1
 9407  5895  5903 1
 9408  5896  5904 1
 9409  5905  5913 1
 9410  5905  5914 1
 9411  5906  5915 1
 9412  5908  5916 1
 9413  5909  5917 1
 9414  5910  5918 1
 9415  5911  5919 1
 9416  5912  5920 1
 9417  5921  5929 1
 9418  5921  5930 1
 9419  5922  5931 1
 9420  5924  5932 1
 9421  5925  5933 1
 9422  5926  5934 1
 9423  5927  5935 1
 9424  5928  5936 1
 9425  5937  5945 1
 9426  5937  5946 1
 9427  5938  5947 1
 9428  5940  5948 1
 9429  5941  5949 1
 9430  5942  5950 1
 9431  5943  5951 1
 9432  5944  5952 1
 9433  5953  5961 1
 9434  5953  5962 1
 9435  5954  5963 1
 9436  5956  5964 1
 9437  5957  5965 1
 9438  5958  5966 1
 9439  5959  5967 1
 9440  5960  5968 1
 9441  5969  5977 1
 9442  5969  5978 1
 9443  5970  5979 1
 9444  5972  5980 1
 9445  5973  5981 1
 9446  5974  5982 1
 9447  5975  5983 1
 9448  5976  5984 1
 9449  5985  5993 1
 9450  5985  5994 1
 9451  5986  5995 1
 9452  5988  5996 1
 9453  5989  5997 1
 9454  5990  5998 1
 9455  5991  5999 1
 9456  5992  6000 1
 9457  6001  6009 1
 9458  6001  6010 1
 9459  6002  6011 1
 9460  6004  6012 1
 9461  6005  6013 1
 9462  6006  6014 1
 9463  6007  6015 1
 9464  6008  6016 1
 9465  6017  6025 1
 9466  6017  6026 1
 9467  6018  6027 1
 9468  6020  6028 1
 9469  6021  6029 1
 9470  6022  6030 1
 9471  6023  6031 1
 9472  6024  6032 1
 9473  6033  6041 1
 9474  6033  6042 1
 9475  6034  6043 1
 9476  6036  6044 1
 9477  6037  6045 1
 9478  6038  6046 1
 9479  6039  6047 1
 9480  6040  6048 1
 9481  6049  6057 1
 9482  6049  6058 1
 9483  6050  6059 1
 9484  6052  6060 1
 9485  6053  6061 1
 9486  6054  6062 1
 9487  6055  6063 1
 9488  6056  6064 1
 9489  6065  6073 1
 9490  6065  6074 1
 9491  6066  6075 1
 9492  6068  6076 1
 9493  6069  6077 1
 9494  6070  6078 1
 9495  6071  6079 1
 9496  6072  6080 1
 9497  6081  6089 1
 9498  6081  6090 1
 9499  6082  6091 1
 9500  6084  6092 1
 9501  6085  6093 1
 9502  6086  6094 1
 9503  6087  6095 1
 9504  6088  6096 1
 9505  6097  6105 1
 9506  6097  6106 1
 9507  6098  6107 1
 9508  6100  6108 1
 9509  6101  6109 1
 9510  6102  6110 1
 9511  6103  6111 1
 9512  6104  6112 1
 9513  6113  6121 1
 9514  6113  6122 1
 9515  6114  6123 1
 9516  6116  6124 1
 9517  6117  6125 1
 9518  6118  6126 1
 9519  6119  6127 1
 9520  6120  6128 1
 9521  6129  6137 1
 9522  6129  6138 1
 9523  6130  6139 1
 9524  6132  6140 1
 9525  6133  6141 1
 9526  6134  6142 1
 9527  6135  6143 1
 9528  6136  6144 1
 9529  6145  6153 1
 9530  6145  6154 1
 9531  6146  6155 1
 9532  6148  6156 1
 9533  6149  6157 1
 9534  6150  6158 1
 9535  6151  6159 1
 9536  6152  6160 1
 9537  6161  6169 1
 9538  6161  6170 1
 9539  6162  6171 1
 9540  6164  6172 1
 9541  6165  6173 1
 9542  6166  6174 1
 9543  6167  6175 1
 9544  6168  6176 1
 9545  6177  6185 1
 9546  6177  6186 1
 9547  6178  6187 1
 9548  6180  6188 1
 9549  6181  6189 1
 9550  6182  6190 1
 9551  6183  6191 1
 9552  6184  6192 1
 9553  6193  6201 1
 9554  6193  6202 1
 9555  6194  6203 1
 9556  6196  6204 1
 9557  6197  6205 1
 9558  6198  6206 1
 9559  6199  6207 1
 9560  6200  6208 1
 9561  6209  6217 1
 9562  6209  6218 1
 9563  6210  6219 1
 9564  6212  6220 1
 9565  6213  6221 1
 9566  6214  6222 1
 9567  6215  6223 1
 9568  6216  6224 1
 9569  6225  6233 1
 9570  6225  6234 1
 9571  6226  6235 1
 9572  6228  6236 1
 9573  6229  6237 1
 9574  6230  6238 1
 9575  6231  6239 1
 9576  6232  6240 1
 9577  6241  6249 1
 9578  6241  6250 1
 9579  6242  6251 1
 9580  6244  6252 1
 9581  6245  6253 1
 9582  6246  6254 1
 9583  6247  6255 1
 9584  6248  6256 1
 9585  6257  6265 1
 9586  6257  6266 1
 9587  6258  6267 1
 9588  6260  6268 1
 9589  6261  6269 1
 9590  6262  6270 1
 9591  6263  6271 1
 9592  6264  6272 1
 9593  6273  6281 1
 9594  6273  6282 1
 9595  6274  6283 1
 9596  6276  6284 1
 9597  6277  6285 1
 9598  6278  6286 1
 9599  6279  6287 1
 9600  6280  6288 1
 9601  6289  6297 1
 9602  6289  6298 1
 9603  6290  6299 1
 9604  6292  6300 1
 9605  6293  6301 1
 9606  6294  6302 1
 9607  6295  6303 1
 9608  6296  6304 1
 9609  6305  6313 1
 9610  6305  6314 1
 9611  6306  6315 1
 9612  6308  6316 1
 9613  6309  6317 1
 9614  6310  6318 1
 9615  6311  6319 1
 9616  6312  6320 1
 9617  6321  6329 1
 9618  6321  6330 1
 9619  6322  6331 1
 9620  6324  6332 1
 9621  6325  6333 1
 9622  6326  6334 1
 9623  6327  6335 1
 9624  6328  6336 1
 9625  6337  6345 1
 9626  6337  6346 1
 9627  6338  6347 1
 9628  6340  6348 1
 9629  6341  6349 1
 9630  6342  6350 1
 9631  6343  6351 1
 9632  6344  6352 1
 9633  6353  6361 1
 9634  6353  6362 1
 9635  6354  6363 1
 9636  6356  6364 1
 9637  6357  6365 1
 9638  6358  6366 1
 9639  6359  6367 1
 9640  6360  6368 1
 9641  6369  6377 1
 9642  6369  6378 1
 9643  6370  6379 1
 9644  6372  6380 1
 9645  6373  6381 1
 9646  6374  6382 1
 9647  6375  6383 1
 9648  6376  6384 1
 9649  6385  6393 1
 9650  6385  6394 1
 9651  6386  6395 1
 9652  6388  6396 1
 9653  6389  6397 1
 9654  6390  6398 1
 9655  6391  6399 1
 9656  6392  6400 1
 9657  6401  6409 1
 9658  6401  6410 1
 9659  6402  6411 1
 9660  6404  6412 1
 9661  6405  6413 1
 9662  6406  6414 1
 9663  6407  6415 1
 9664  6408  6416 1
 9665  6417  6425 1
 9666  6417  6426 1
 9667  6418  6427 1
 9668  6420  6428 1
 9669  6421  6429 1
 9670  6422  6430 1
 9671  6423  6431 1
 9672  6424  6432 1
 9673  6433  6441 1
 9674  6433  6442 1
 9675  6434  6443 1
 9676  6436  6444 1
 9677  6437  6445 1
 9678  6438  6446 1
 9679  6439  6447 1
 9680  6440  6448 1
 9681  6449  6457 1
 9682  6449  6458 1
 9683  6450  6459 1
 9684  6452  6460 1
 9685  6453  6461 1
 9686  6454  6462 1
 9687  6455  6463 1
 9688  6456  6464 1
 9689  6465  6473 1
 9690  6465  6474 1
 9691  6466  6475 1
 9692  6468  6476 1
 9693  6469  6477 1
 9694  6470  6478 1
 9695  6471  6479 1
 9696  6472  6480 1
 9697  6481  6489 1
 9698  6481  6490 1
 9699  6482  6491 1
 9700  6484  6492 1
 9701  6485  6493 1
 9702  6486  6494 1
 9703  6487  6495 1
 9704  6488  6496 1
 9705  6497  6505 1
 9706  6497  6506 1
 9707  6498  6507 1
 9708  6500  6508 1
 9709  6501  6509 1
 9710  6502  6510 1
 9711  6503  6511 1
 9712  6504  6512 1
 9713  6513  6521 1
 9714  6513  6522 1
 9715  6514  6523 1
 9716  6516  6524 1
 9717  6517  6525 1
 9718  6518  6526 1
 9719  6519  6527 1
 9720  6520  6528 1
 9721  6529  6537 1
 9722  6529  6538 1
 9723  6530  6539 1
 9724  6532  6540 1
 9725  6533  6541 1
 9726  6534  6542 1
 9727  6535  6543 1
 9728  6536  6544 1
 9729  6545  6553 1
 9730  6545  6554 1
 9731  6546  6555 1
 9732  6548  6556 1
 9733  6549  6557 1
 9734  6550  6558 1
 9735  6551  6559 1
 9736  6552  6560 1
 9737  6561  6569 1
 9738  6561  6570 1
 9739  6562  6571 1
 9740  6564  6572 1
 9741  6565  6573 1
 9742  6566  6574 1
 9743  6567  6575 1
 9744  6568  6576 1
 9745  6577  6585 1
 9746  6577  6586 1
 9747  6578  6587 1
 9748  6580  6588 1
 9749  6581  6589 1
 9750  6582  6590 1
 9751  6583  6591 1
 9752  6584  6592 1
 9753  6593  6601 1
 9754  6593  6602 1
 9755  6594  6603 1
 9756  6596  6604 1
 9757  6597  6605 1
 9758  6598  6606 1
 9759  6599  6607 1
 9760  6600  6608 1
 9761  6609  6617 1
 9762  6609  6618 1
 9763  6610  6619 1
 9764  6612  6620 1
 9765  6613  6621 1
 9766  6614  6622 1
 9767  6615  6623 1
 9768  6616  6624 1
 9769  6625  6633 1
 9770  6625  6634 1
 9771  6626  6635 1
 9772  6628  6636 1
 9773  6629  6637 1
 9774  6630  6638 1
 9775  6631  6639 1
 9776  6632  6640 1
 9777  6641  6649 1
 9778  6641  6650 1
 9779  6642  6651 1
 9780  6644  6652 1
 9781  6645  6653 1
 9782  6646  6654 1
 9783  6647  6655 1
 9784  6648  6656 1
 9785  6657  6665 1
 9786  6657  6666 1
 9787  6658  6667 1
 9788  6660  6668 1
 9789  6661  6669 1
 9790  6662  6670 1
 9791  6663  6671 1
 9792  6664  6672 1
 9793  6673  6681 1
 9794  6673  6682 1
 9795  6674  6683 1
 9796  6676  6684 1
 9797  6677  6685 1
 9798  6678  6686 1
 9799  6679  6687 1
 9800  6680  6688 1
 9801  6689  6697 1
 9802  6689  6698 1
 9803  6690  6699 1
 9804  6692  6700 1
 9805  6693  6701 1
 9806  6694  6702 1
 9807  6695  6703 1
 9808  6696  6704 1
 9809  6705  6713 1
 9810  6705  6714 1
 9811  6706  6715 1
 9812  6708  6716 1
 9813  6709  6717 1
 9814  6710  6718 1
 9815  6711  6719 1
 9816  6712  6720 1
 9817  6721  6729 1
 9818  6721  6730 1
 9819  6722  6731 1
 9820  6724  6732 1
 9821  6725  6733 1
 9822  6726  6734 1
 9823  6727  6735 1
 9824  6728  6736 1
 9825  6737  6745 1
 9826  6737  6746 1
 9827  6738  6747 1
 9828  6740  6748 1
 9829  6741  6749 1
 9830  6742  6750 1
 9831  6743  6751 1
 9832  6744  6752 1
 9833  6753  6761 1
 9834  6753  6762 1
 9835  6754  6763 1
 9836  6756  6764 1
 9837  6757  6765 1
 9838  6758  6766 1
 9839  6759  6767 1
 9840  6760  6768 1
 9841  6769  6777 1
 9842  6769  6778 1
 9843  6770  6779 1
 9844  6772  6780 1
 9845  6773  6781 1
 9846  6774  6782 1
 9847  6775  6783 1
 9848  6776  6784 1
 9849  6785  6793 1
 9850  6785  6794 1
 9851  6786  6795 1
 9852  6788  6796 1
 9853  6789  6797 1
 9854  6790  6798 1
 9855  6791  6799 1
 9856  6792  6800 1
 9857  6801  6809 1
 9858  6801  6810 1
 9859  6802  6811 1
 9860  6804  6812 1
 9861  6805  6813 1
 9862  6806  6814 1
 9863  6807  6815 1
 9864  6808  6816 1
 9865  6817  6825 1
 9866  6817  6826 1
 9867  6818  6827 1
 9868  6820  6828 1
 9869  6821  6829 1
 9870  6822  6830 1
 9871  6823  6831 1
 9872  6824  6832 1
 9873  6833  6841 1
 9874  6833  6842 1
 9875  6834  6843 1
 9876  6836  6844 1
 9877  6837  6845 1
 9878  6838  6846 1
 9879  6839  6847 1
 9880  6840  6848 1
 9881  6849  6857 1
 9882  6849  6858 1
 9883  6850  6859 1
 9884  6852  6860 1
 9885  6853  6861 1
 9886  6854  6862 1
 9887  6855  6863 1
 9888  6856  6864 1
 9889  6865  6873 1
 9890  6865  6874 1
 9891  6866  6875 1
 9892  6868  6876 1
 9893  6869  6877 1
 9894  6870  6878 1
 9895  6871  6879 1
 9896  6872  6880 1
 9897  6881  6889 1
 9898  6881  6890 1
 9899  6882  6891 1
 9900  6884  6892 1
 9901  6885  6893 1
 9902  6886  6894 1
 9903  6887  6895 1
 9904  6888  6896 1
 9905  6897  6905 1
 9906  6897  6906 1
 9907  6898  6907 1
 9908  6900  6908 1
 9909  6901  6909 1
 9910  6902  6910 1
 9911  6903  6911 1
 9912  6904  6912 1
 9913  6913  6921 1
 9914  6913  6922 1
 9915  6914  6923 1
 9916  6916  6924 1
 9917  6917  6925 1
 9918  6918  6926 1
 9919  6919  6927 1
 9920  6920  6928 1
 9921  6929  6937 1
 9922  6929  6938 1
 9923  6930  6939 1
 9924  6932  6940 1
 9925  6933  6941 1
 9926  6934  6942 1
 9927  6935  6943 1
 9928  6936  6944 1
 9929  6945  6953 1
 9930  6945  6954 1
 9931  6946  6955 1
 9932  6948  6956 1
 9933  6949  6957 1
 9934  6950  6958 1
 9935  6951  6959 1
 9936  6952  6960 1
 9937  6961  6969 1
 9938  6961  6970 1
 9939  6962  6971 1
 9940  6964  6972 1
 9941  6965  6973 1
 9942  6966  6974 1
 9943  6967  6975 1
 9944  6968  6976 1
 9945  6977  6985 1
 9946  6977  6986 1
 9947  6978  6987 1
 9948  6980  6988 1
 9949  6981  6989 1
 9950  6982  6990 1
 9951  6983  6991 1
 9952  6984  6992 1
 9953  6993  7001 1
 9954  6993  7002 1
 9955  6994  7003 1
 9956  6996  7004 1
 9957  6997  7005 1
 9958  6998  7006 1
 9959  6999  7007 1
 9960  7000  7008 1
 9961  7009  7017 1
 9962  7009  7018 1
 9963  7010  7019 1
 9964  7012  7020 1
 9965  7013  7021 1
 9966  7014  7022 1
 9967  7015  7023 1
 9968  7016  7024 1
 9969  7025  7033 1
 9970  7025  7034 1
 9971  7026  7035 1
 9972  7028  7036 1
 9973  7029  7037 1
 9974  7030  7038 1
 9975  7031  7039 1
 9976  7032  7040 1
 9977  7041  7049 1
 9978  7041  7050 1
 9979  7042  7051 1
 9980  7044  7052 1
 9981  7045  7053 1
 9982  7046  7054 1
 9983  7047  7055 1
 9984  7048  7056 1
 9985  7057  7065 1
 9986  7057  7066 1
 9987  7058  7067 1
 9988  7060  7068 1
 9989  7061  7069 1
 9990  7062  7070 1
 9991  7063  7071 1
 9992  7064  7072 1
 9993  7073  7081 1
 9994  7073  7082 1
 9995  7074  7083 1
 9996  7076  7084 1
 9997  7077  7085 1
 9998  7078  7086 1
 9999  7079  7087 1
10000  7080  7088 1
10001  7089  7097 1
10002  7089  7098 1
10003  7090  7099 1
10004  7092  7100 1
10005  7093  7101 1
10006  7094  7102 1
10007  7095  7103 1
10008  7096  7104 1
10009  7105  7113 1
10010  7105  7114 1
10011  7106  7115 1
10012  7108  7116 1
10013  7109  7117 1
10014  7110  7118 1
10015  7111  7119 1
10016  7112  7120 1
10017  7121  7129 1
10018  7121  7130 1
10019  7122  7131 1
10020  7124  7132 1
10021  7125  7133 1
10022  7126  7134 1
10023  7127  7135 1
10024  7128  7136 1
10025  7137  7145 1
10026  7137  7146 1
10027  7138  7147 1
10028  7140  7148 1
10029  7141  7149 1
10030  7142  7150 1
10031  7143  7151 1
10032  7144  7152 1
10033  7153  7161 1
10034  7153  7162 1
10035  7154  7163 1
10036  7156  7164 1
10037  7157  7165 1
10038  7158  7166 1
10039  7159  7167 1
10040  7160  7168 1
10041  7169  7177 1
10042  7169  7178 1
10043  7170  7179 1
10044  7172  7180 1
10045  7173  7181 1
10046  7174  7182 1
10047  7175  7183 1
10048  7176  7184 1
10049  7185  7193 1
10050  7185  7194 1
10051  7186  7195 1
10052  7188  7196 1
10053  7189  7197 1
10054  7190  7198 1
10055  7191  7199 1
10056  7192  7200 1
10057  7201  7209 1
10058  7201  7210 1
10059  7202  7211 1
10060  7204  7212 1
10061  7205  7213 1
10062  7206  7214 1
10063  7207  7215 1
10064  7208  7216 1
10065  7217  7225 1
10066  7217  7226 1
10067  7218  7227 1
10068  7220  7228 1
10069  7221  7229 1
10070  7222  7230 1
10071  7223  7231 1
10072  7224  7232 1
10073  7233  7241 1
10074  7233  7242 1
10075  7234  7243 1
10076  7236  7244 1
10077  7237  7245 1
10078  7238  7246 1
10079  7239  7247 1
10080  7240  7248 1
10081  7249  7257 1
10082  7249  7258 1
10083  7250  7259 1
10084  7252  7260 1
10085  7253  7261 1
10086  7254  7262 1
10087  7255  7263 1
10088  7256  7264 1
10089  7265  7273 1
10090  7265  7274 1
10091  7266  7275 1
10092  7268  7276 1
10093  7269  7277 1
10094  7270  7278 1
10095  7271  7279 1
10096  7272  7280 1
10097  7281  7289 1
10098  7281  7290 1
10099  7282  7291 1
10100  7284  7292 1
10101  7285  7293 1
10102  7286  7294 1
10103  7287  7295 1
10104  7288  7296 1
10105  7297  7305 1
10106  7297  7306 1
10107  7298  7307 1
10108  7300  7308 1
10109  7301  7309 1
10110  7302  7310 1
10111  7303  7311 1
10112  7304  7312 1
10113  7313  7321 1
10114  7313  7322 1
10115  7314  7323 1
10116  7316  7324 1
10117  7317  7325 1
10118  7318  7326 1
10119  7319  7327 1
10120  7320  7328 1
10121  7329  7337 1
10122  7329  7338 1
10123  7330  7339 1
10124  7332  7340 1
10125  7333  7341 1
10126  7334  7342 1
10127  7335  7343 1
10128  7336  7344 1
10129  7345  7353 1
10130  7345  7354 1
10131  7346  7355 1
10132  7348  7356 1
10133  7349  7357 1
10134  7350  7358 1
10135  7351  7359 1
10136  7352  7360 1
10137  7361  7369 1
10138  7361  7370 1
10139  7362  7371 1
10140  7364  7372 1
10141  7365  7373 1
10142  7366  7374 1
10143  7367  7375 1
10144  7368  7376 1
10145  7377  7385 1
10146  7377  7386 1
10147  7378  7387 1
10148  7380  7388 1
10149  7381  7389 1
10150  7382  7390 1
10151  7383  7391 1
10152  7384  7392 1
10153  7393  7401 1
10154  7393  7402 1
10155  7394  7403 1
10156  7396  7404 1
10157  7397  7405 1
10158  7398  7406 1
10159  7399  7407 1
10160  7400  7408 1
10161  7409  7417 1
10162  7409  7418 1
10163  7410  7419 1
10164  7412  7420 1
10165  7413  7421 1
10166  7414  7422 1
10167  7415  7423 1
10168  7416  7424 1
10169  7425  7433 1
10170  7425  7434 1
10171  7426  7435 1
10172  7428  7436 1
10173  7429  7437 1
10174  7430  7438 1
10175  7431  7439 1
10176  7432  7440 1
10177  7441  7449 1
10178  7441  7450 1
10179  7442  7451 1
10180  7444  7452 1
10181  7445  7453 1
10182  7446  7454 1
10183  7447  7455 1
10184  7448  7456 1
10185  7457  7465 1
10186  7457  7466 1
10187  7458  7467 1
10188  7460  7468 1
10189  7461  7469 1
10190  7462  7470 1
10191  7463  7471 1
10192  7464  7472 1
10193  7473  7481 1
10194  7473  7482 1
10195  7474  7483 1
10196  7476  7484 1
10197  7477  7485 1
10198  7478  7486 1
10199  7479  7487 1
10200  7480  7488 1
10201  7489  7497 1
10202  7489  7498 1
10203  7490  7499 1
10204  7492  7500 1
10205  7493  7501 1
10206  7494  7502 1
10207  7495  7503 1
10208  7496  7504 1
10209  7505  7513 1
10210  7505  7514 1
10211  7506  7515 1
10212  7508  7516 1
10213  7509  7517 1
10214  7510  7518 1
10215  7511  7519 1
10216  7512  7520 1
10217  7521  7529 1
10218  7521  7530 1
10219  7522  7531 1
10220  7524  7532 1
10221  7525  7533 1
10222  7526  7534 1
10223  7527  7535 1
10224  7528  7536 1
10225  7537  7545 1
10226  7537  7546 1
10227  7538  7547 1
10228  7540  7548 1
10229  7541  7549 1
10230  7542  7550 1
10231  7543  7551 1
10232  7544  7552 1
10233  7553  7561 1
10234  7553  7562 1
10235  7554  7563 1
10236  7556  7564 1
10237  7557  7565 1
10238  7558  7566 1
10239  7559  7567 1
10240  7560  7568 1
10241  7569  7577 1
10242  7569  7578 1
10243  7570  7579 1
10244  7572  7580 1
10245  7573  7581 1
10246  7574  7582 1
10247  7575  7583 1
10248  7576  7584 1
10249  7585  7593 1
10250  7585  7594 1
10251  7586  7595 1
10252  7588  7596 1
10253  7589  7597 1
10254  7590  7598 1
10255  7591  7599 1
10256  7592  7600 1
10257  7601  7609 1
10258  7601  7610 1
10259  7602  7611 1
10260  7604  7612 1
10261  7605  7613 1
10262  7606  7614 1
10263  7607  7615 1
10264  7608  7616 1
10265  7617  7625 1
10266  7617  7626 1
10267  7618  7627 1
10268  7620  7628 1
10269  7621  7629 1
10270  7622  7630 1
10271  7623  7631 1
10272  7624  7632 1
10273  7633  7641 1
10274  7633  7642 1
10275  7634  7643 1
10276  7636  7644 1
10277  7637  7645 1
10278  7638  7646 1
10279  7639  7647 1
10280  7640  7648 1
10281  7649  7657 1
10282  7649  7658 1
10283  7650  7659 1
10284  7652  7660 1
10285  7653  7661 1
10286  7654  7662 1
10287  7655  7663 1
10288  7656  7664 1
10289  7665  7673 1
10290  7665  7674 1
10291  7666  7675 1
10292  7668  7676 1
10293  7669  7677 1
10294  7670  7678 1
10295  7671  7679 1
10296  7672  7680 1
10297  7681  7689 1
10298  7681  7690 1
10299  7682  7691 1
10300  7684  7692 1
10301  7685  7693 1
10302  7686  7694 1
10303  7687  7695 1
10304  7688  7696 1
10305  7697  7705 1
10306  7697  7706 1
10307  7698  7707 1
10308  7700  7708 1
10309  7701  7709 1
10310  7702  7710 1
10311  7703  7711 1
10312  7704  7712 1
10313  7713  7721 1
10314  7713  7722 1
10315  7714  7723 1
10316  7716  7724 1
10317  7717  7725 1
10318  7718  7726 1
10319  7719  7727 1
10320  7720  7728 1
10321  7729  7737 1
10322  7729  7738 1
10323  7730  7739 1
10324  7732  7740 1
10325  7733  7741 1
10326  7734  7742 1
10327  7735  7743 1
10328  7736  7744 1
10329  7745  7753 1
10330  7745  7754 1
10331  7746  7755 1
10332  7748  7756 1
10333  7749  7757 1
10334  7750  7758 1
10335  7751  7759 1
10336  7752  7760 1
10337  7761  7769 1
10338  7761  7770 1
10339  7762  7771 1
10340  7764  7772 1
10341  7765  7773 1
10342  7766  7774 1
10343  7767  7775 1
10344  7768  7776 1
10345  7777  7785 1
10346  7777  7786 1
10347  7778  7787 1
10348  7780  7788 1
10349  7781  7789 1
10350  7782  7790 1
10351  7783  7791 1
10352  7784  7792 1
10353  7793  7801 1
10354  7793  7802 1
10355  7794  7803 1
10356  7796  7804 1
10357  7797  7805 1
10358  7798  7806 1
10359  7799  7807 1
10360  7800  7808 1
10361  7809  7817 1
10362  7809  7818 1
10363  7810  7819 1
10364  7812  7820 1
10365  7813  7821 1
10366  7814  7822 1
10367  7815  7823 1
10368  7816  7824 1
10369  7825  7833 1
10370  7825  7834 1
10371  7826  7835 1
10372  7828  7836 1
10373  7829  7837 1
10374  7830  7838 1
10375  7831  7839 1
10376  7832  7840 1
10377  7841  7849 1
10378  7841  7850 1
10379  7842  7851 1
10380  7844  7852 1
10381  7845  7853 1
10382  7846  7854 1
10383  7847  7855 1
10384  7848  7856 1
10385  7857  7865 1
10386  7857  7866 1
10387  7858  7867 1
10388  7860  7868 1
10389  7861  7869 1
10390  7862  7870 1
10391  7863  7871 1
10392  7864  7872 1
10393  7873  7881 1
10394  7873  7882 1
10395  7874  7883 1
10396  7876  7884 1
10397  7877  7885 1
10398  7878  7886 1
10399  7879  7887 1
10400  7880  7888 1
10401  7889  7897 1
10402  7889  7898 1
10403  7890  7899 1
10404  7892  7900 1
10405  7893  7901 1
10406  7894  7902 1
10407  7895  7903 1
10408  7896  7904 1
10409  7905  7913 1
10410  7905  7914 1
10411  7906  7915 1
10412  7908  7916 1
10413  7909  7917 1
10414  7910  7918 1
10415  7911  7919 1
10416  7912  7920 1
10417  7921  7929 1
10418  7921  7930 1
10419  7922  7931 1
10420  7924  7932 1
10421  7925  7933 1
10422  7926  7934 1
10423  7927  7935 1
10424  7928  7936 1
10425  7937  7945 1
10426  7937  7946 1
10427  7938  7947 1
10428  7940  7948 1
10429  7941  7949 1
10430  7942  7950 1
10431  7943  7951 1
10432  7944  7952 1
10433  7953  7961 1
10434  7953  7962 1
10435  7954  7963 1
10436  7956  7964 1
10437  7957  7965 1
10438  7958  7966 1
10439  7959  7967 1
10440  7960  7968 1
10441  7969  7977 1
10442  7969  7978 1
10443  7970  7979 1
10444  7972  7980 1
10445  7973  7981 1
10446  7974  7982 1
10447  7975  7983 1
10448  7976  7984 1
10449  7985  7993 1
10450  7985  7994 1
10451  7986  7995 1
10452  7988  7996 1
10453  7989  7997 1
10454  7990  7998 1
10455  7991  7999 1
10456  7992  8000 1
10457  8001  8009 1
10458  8001  8010 1
10459  8002  8011 1
10460  8004  8012 1
10461  8005  8013 1
10462  8006  8014 1
10463  8007  8015 1
10464  8008  8016 1
10465  8017  8025 1
10466  8017  8026 1
10467  8018  8027 1
10468  8020  8028 1
10469  8021  8029 1
10470  8022  8030 1
10471  8023  8031 1
10472  8024  8032 1
10473  8033  8041 1
10474  8033  8042 1
10475  8034  8043 1
10476  8036  8044 1
10477  8037  8045 1
10478  8038  8046 1
10479  8039  8047 1
10480  8040  8048 1
10481  8049  8057 1
10482  8049  8058 1
10483  8050  8059 1
10484  8052  8060 1
10485  8053  8061 1
10486  8054  8062 1
10487  8055  8063 1
10488  8056  8064 1
10489  8065  8073 1
10490  8065  8074 1
10491  8066  8075 1
10492  8068  8076 1
10493  8069  8077 1
10494  8070  8078 1
10495  8071  8079 1
10496  8072  8080 1
10497  8081  8089 1
10498  8081  8090 1
10499  8082  8091 1
10500  8084  8092 1
10501  8085  8093 1
10502  8086  8094 1
10503  8087  8095 1
10504  8088  8096 1
10505  8097  8105 1
10506  8097  8106 1
10507  8098  8107 1
10508  8100  8108 1
10509  8101  8109 1
10510  8102  8110 1
10511  8103  8111 1
10512  8104  8112 1
10513  8113  8121 1
10514  8113  8122 1
10515  8114  8123 1
10516  8116  8124 1
10517  8117  8125 1
10518  8118  8126 1
10519  8119  8127 1
10520  8120  8128 1
10521  8129  8137 1
10522  8129  8138 1
10523  8130  8139 1
10524  8132  8140 1
10525  8133  8141 1
10526  8134  8142 1
10527  8135  8143 1
10528  8136  8144 1
10529  8145  8153 1
10530  8145  8154 1
10531  8146  8155 1
10532  8148  8156 1
10533  8149  8157 1
10534  8150  8158 1
10535  8151  8159 1
10536  8152  8160 1
10537  8161  8169 1
10538  8161  8170 1
10539  8162  8171 1
10540  8164  8172 1
10541  8165  8173 1
10542  8166  8174 1
10543  8167  8175 1
10544  8168  8176 1
10545  8177  8185 1
10546  8177  8186 1
10547  8178  8187 1
10548  8180  8188 1
10549  8181  8189 1
10550  8182  8190 1
10551  8183  8191 1
10552  8184  8192 1
10553  8193  8201 1
10554  8193  8202 1
10555  8194  8203 1
10556  8196  8204 1
10557  8197  8205 1
10558  8198  8206 1
10559  8199  8207 1
10560  8200  8208 1
10561  8209  8217 1
10562  8209  8218 1
10563  8210  8219 1
10564  8212  8220 1
10565  8213  8221 1
10566  8214  8222 1
10567  8215  8223 1
10568  8216  8224 1
10569  8225  8233 1
10570  8225  8234 1
10571  8226  8235 1
10572  8228  8236 1
10573  8229  8237 1
10574  8230  8238 1
10575  8231  8239 1
10576  8232  8240 1
10577  8241  8249 1
10578  8241  8250 1
10579  8242  8251 1
10580  8244  8252 1
10581  8245  8253 1
10582  8246  8254 1
10583  8247  8255 1
10584  8248  8256 1
10585  8257  8265 1
10586  8257  8266 1
10587  8258  8267 1
10588  8260  8268 1
10589  8261  8269 1
10590  8262  8270 1
10591  8263  8271 1
10592  8264  8272 1
10593  8273  8281 1
10594  8273  8282 1
10595  8274  8283 1
10596  8276  8284 1
10597  8277  8285 1
10598  8278  8286 1
10599  8279  8287 1
10600  8280  8288 1
10601  8289  8297 1
10602  8289  8298 1
10603  8290  8299 1
10604  8292  8300 1
10605  8293  8301 1
10606  8294  8302 1
10607  8295  8303 1
10608  8296  8304 1
10609  8305  8313 1
10610  8305  8314 1
10611  8306  8315 1
10612  8308  8316 1
10613  8309  8317 1
10614  8310  8318 1
10615  8311  8319 1
10616  8312  8320 1
10617  8321  8329 1
10618  8321  8330 1
10619  8322  8331 1
10620  8324  8332 1
10621  8325  8333 1
10622  8326  8334 1
10623  8327  8335 1
10624  8328  8336 1
10625  8337  8345 1
10626  8337  8346 1
10627  8338  8347 1
10628  8340  8348 1
10629  8341  8349 1
10630  8342  8350 1
10631  8343  8351 1
10632  8344  8352 1
10633  8353  8361 1
10634  8353  8362 1
10635  8354  8363 1
10636  8356  8364 1
10637  8357  8365 1
10638  8358  8366 1
10639  8359  8367 1
10640  8360  8368 1
10641  8369  8377 1
10642  8369  8378 1
10643  8370  8379 1
10644  8372  8380 1
10645  8373  8381 1
10646  8374  8382 1
10647  8375  8383 1
10648  8376  8384 1
10649  8385  8393 1
10650  8385  8394 1
10651  8386  8395 1
10652  8388  8396 1
10653  8389  8397 1
10654  8390  8398 1
10655  8391  8399 1
10656  8392  8400 1
10657  8401  8409 1
10658  8401  8410 1
10659  8402  8411 1
10660  8404  8412 1
10661  8405  8413 1
10662  8406  8414 1
10663  8407  8415 1
10664  8408  8416 1
10665  8417  8425 1
10666  8417  8426 1
10667  8418  8427 1
10668  8420  8428 1
10669  8421  8429 1
10670  8422  8430 1
10671  8423  8431 1
10672  8424  8432 1
10673  8433  8441 1
10674  8433  8442 1
10675  8434  8443 1
10676  8436  8444 1
10677  8437  8445 1
10678  8438  8446 1
10679  8439  8447 1
10680  8440  8448 1
10681  8449  8457 1
10682  8449  8458 1
10683  8450  8459 1
10684  8452  8460 1
10685  8453  8461 1
10686  8454  8462 1
10687  8455  8463 1
10688  8456  8464 1
10689  8465  8473 1
10690  8465  8474 1
10691  8466  8475 1
10692  8468  8476 1
10693  8469  8477 1
10694  8470  8478 1
10695  8471  8479 1
10696  8472  8480 1
10697  8481  8489 1
10698  8481  8490 1
10699  8482  8491 1
10700  8484  8492 1
10701  8485  8493 1
10702  8486  8494 1
10703  8487  8495 1
10704  8488  8496 1
10705  8497  8505 1
10706  8497  8506 1
10707  8498  8507 1
10708  8500  8508 1
10709  8501  8509 1
10710  8502  8510 1
10711  8503  8511 1
10712  8504  8512 1
10713  8513  8521 1
10714  8513  8522 1
10715  8514  8523 1
10716  8516  8524 1
10717  8517  8525 1
10718  8518  8526 1
10719  8519  8527 1
10720  8520  8528 1
10721  8529  8537 1
10722  8529  8538 1
10723  8530  8539 1
10724  8532  8540 1
10725  8533  8541 1
10726  8534  8542 1
10727  8535  8543 1
10728  8536  8544 1
10729  8545  8553 1
10730  8545  8554 1
10731  8546  8555 1
10732  8548  8556 1
10733  8549  8557 1
10734  8550  8558 1
10735  8551  8559 1
10736  8552  8560 1
10737  8561  8569 1
10738  8561  8570 1
10739  8562  8571 1
10740  8564  8572 1
10741  8565  8573 1
10742  8566  8574 1
10743  8567  8575 1
10744  8568  8576 1
10745  8577  8585 1
10746  8577  8586 1
10747  8578  8587 1
10748  8580  8588 1
10749  8581  8589 1
10750  8582  8590 1
10751  8583  8591 1
10752  8584  8592 1
10753  8593  8601 1
10754  8593  8602 1
10755  8594  8603 1
10756  8596  8604 1
10757  8597  8605 1
10758  8598  8606 1
10759  8599  8607 1
10760  8600  8608 1
10761  8609  8617 1
10762  8609  8618 1
10763  8610  8619 1
10764  8612  8620 1
10765  8613  8621 1
10766  8614  8622 1
10767  8615  8623 1
10768  8616  8624 1
10769  8625  8633 1
10770  8625  8634 1
10771  8626  8635 1
10772  8628  8636 1
10773  8629  8637 1
10774  8630  8638 1
10775  8631  8639 1
10776  8632  8640 1
10777  8641  8649 1
10778  8641  8650 1
10779  8642  8651 1
10780  8644  8652 1
10781  8645  8653 1
10782  8646  8654 1
10783  8647  8655 1
10784  8648  8656 1
10785  8657  8665 1
10786  8657  8666 1
10787  8658  8667 1
10788  8660  8668 1
10789  8661  8669 1
10790  8662  8670 1
10791  8663  8671 1
10792  8664  8672 1
10793  8673  8681 1
10794  8673  8682 1
10795  8674  8683 1
10796  8676  8684 1
10797  8677  8685 1
10798  8678  8686 1
10799  8679  8687 1
10800  8680  8688 1
10801  8689  8697 1
10802  8689  8698 1
10803  8690  8699 1
10804  8692  8700 1
10805  8693  8701 1
10806  8694  8702 1
10807  8695  8703 1
10808  8696  8704 1
10809  8705  8713 1
10810  8705  8714 1
10811  8706  8715 1
10812  8708  8716 1
10813  8709  8717 1
10814  8710  8718 1
10815  8711  8719 1
10816  8712  8720 1
10817  8721  8729 1
10818  8721  8730 1
10819  8722  8731 1
10820  8724  8732 1
10821  8725  8733 1
10822  8726  8734 1
10823  8727  8735 1
10824  8728  8736 1
10825  8737  8745 1
10826  8737  8746 1
10827  8738  8747 1
10828  8740  8748 1
10829  8741  8749 1
10830  8742  8750 1
10831  8743  8751 1
10832  8744  8752 1
10833  8753  8761 1
10834  8753  8762 1
10835  8754  8763 1
10836  8756  8764 1
10837  8757  8765 1
10838  8758  8766 1
10839  8759  8767 1
10840  8760  8768 1
10841  8769  8777 1
10842  8769  8778 1
10843  8770  8779 1
10844  8772  8780 1
10845  8773  8781 1
10846  8774  8782 1
10847  8775  8783 1
10848  8776  8784 1
10849  8785  8793 1
10850  8785  8794 1
10851  8786  8795 1
10852  8788  8796 1
10853  8789  8797 1
10854  8790  8798 1
10855  8791  8799 1
10856  8792  8800 1
10857  8801  8809 1
10858  8801  8810 1
10859  8802  8811 1
10860  8804  8812 1
10861  8805  8813 1
10862  8806  8814 1
10863  8807  8815 1
10864  8808  8816 1
10865  8817  8825 1
10866  8817  8826 1
10867  8818  8827 1
10868  8820  8828 1
10869  8821  8829 1
10870  8822  8830 1
10871  8823  8831 1
10872  8824  8832 1
10873  8833  8841 1
10874  8833  8842 1
10875  8834  8843 1
10876  8836  8844 1
10877  8837  8845 1
10878  8838  8846 1
10879  8839  8847 1
10880  8840  8848 1
10881  8849  8857 1
10882  8849  8858 1
10883  8850  8859 1
10884  8852  8860 1
10885  8853  8861 1
10886  8854  8862 1
10887  8855  8863 1
10888  8856  8864 1
10889  8865  8873 1
10890  8865  8874 1
10891  8866  8875 1
10892  8868  8876 1
10893  8869  8877 1
10894  8870  8878 1
10895  8871  8879 1
10896  8872  8880 1
10897  8881  8889 1
10898  8881  8890 1
10899  8882  8891 1
10900  8884  8892 1
10901  8885  8893 1
10902  8886  8894 1
10903  8887  8895 1
10904  8888  8896 1
10905  8897  8905 1
10906  8897  8906 1
10907  8898  8907 1
10908  8900  8908 1
10909  8901  8909 1
10910  8902  8910 1
10911  8903  8911 1
10912  8904  8912 1
10913  8913  8921 1
10914  8913  8922 1
10915  8914  8923 1
10916  8916  8924 1
10917  8917  8925 1
10918  8918  8926 1
10919  8919  8927 1
10920  8920  8928 1
10921  8929  8937 1
10922  8929  8938 1
10923  8930  8939 1
10924  8932  8940 1
10925  8933  8941 1
10926  8934  8942 1
10927  8935  8943 1
10928  8936  8944 1
10929  8945  8953 1
10930  8945  8954 1
10931  8946  8955 1
10932  8948  8956 1
10933  8949  8957 1
10934  8950  8958 1
10935  8951  8959 1
10936  8952  8960 1
10937  8961  8969 1
10938  8961  8970 1
10939  8962  8971 1
10940  8964  8972 1
10941  8965  8973 1
10942  8966  8974 1
10943  8967  8975 1
10944  8968  8976 1
10945  8977  8985 1
10946  8977  8986 1
10947  8978  8987 1
10948  8980  8988 1
10949  8981  8989 1
10950  8982  8990 1
10951  8983  8991 1
10952  8984  8992 1
10953  8993  9001 1
10954  8993  9002 1
10955  8994  9003 1
10956  8996  9004 1
10957  8997  9005 1
10958  8998  9006 1
10959  8999  9007 1
10960  9000  9008 1
10961  9009  9017 1
10962  9009  9018 1
10963  9010  9019 1
10964  9012  9020 1
10965  9013  9021 1
10966  9014  9022 1
10967  9015  9023 1
10968  9016  9024 1
10969  9025  9033 1
10970  9025  9034 1
10971  9026  9035 1
10972  9028  9036 1
10973  9029  9037 1
10974  9030  9038 1
10975  9031  9039 1
10976  9032  9040 1
10977  9041  9049 1
10978  9041  9050 1
10979  9042  9051 1
10980  9044  9052 1
10981  9045  9053 1
10982  9046  9054 1
10983  9047  9055 1
10984  9048  9056 1
10985  9057  9065 1
10986  9057  9066 1
10987  9058  9067 1
10988  9060  9068 1
10989  9061  9069 1
10990  9062  9070 1
10991  9063  9071 1
10992  9064  9072 1
10993  9073  9081 1
10994  9073  9082 1
10995  9074  9083 1
10996  9076  9084 1
10997  9077  9085 1
10998  9078  9086 1
10999  9079  9087 1
11000  9080  9088 1
11001  9089  9097 1
11002  9089  9098 1
11003  9090  9099 1
11004  9092  9100 1
11005  9093  9101 1
11006  9094  9102 1
11007  9095  9103 1
11008  9096  9104 1
11009  9105  9113 1
11010  9105  9114 1
11011  9106  9115 1
11012  9108  9116 1
11013  9109  9117 1
11014  9110  9118 1
11015  9111  9119 1
11016  9112  9120 1
11017  9121  9129 1
11018  9121  9130 1
11019  9122  9131 1
11020  9124  9132 1
11021  9125  9133 1
11022  9126  9134 1
11023  9127  9135 1
11024  9128  9136 1
11025  9137  9145 1
11026  9137  9146 1
11027  9138  9147 1
11028  9140  9148 1
11029  9141  9149 1
11030  9142  9150 1
11031  9143  9151 1
11032  9144  9152 1
11033  9153  9161 1
11034  9153  9162 1
11035  9154  9163 1
11036  9156  9164 1
11037  9157  9165 1
11038  9158  9166 1
11039  9159  9167 1
11040  9160  9168 1
11041  9169  9177 1
11042  9169  9178 1
11043  9170  9179 1
11044  9172  9180 1
11045  9173  9181 1
11046  9174  9182 1
11047  9175  9183 1
11048  9176  9184 1
11049  9185  9193 1
11050  9185  9194 1
11051  9186  9195 1
11052  9188  9196 1
11053  9189  9197 1
11054  9190  9198 1
11055  9191  9199 1
11056  9192  9200 1
11057  9201  9209 1
11058  9201  9210 1
11059  9202  9211 1
11060  9204  9212 1
11061  9205  9213 1
11062  9206  9214 1
11063  9207  9215 1
11064  9208  9216 1
11065  9217  9225 1
11066  9217  9226 1
11067  9218  9227 1
11068  9220  9228 1
11069  9221  9229 1
11070  9222  9230 1
11071  9223  9231 1
11072  9224  9232 1
11073  9233  9241 1
11074  9233  9242 1
11075  9234  9243 1
11076  9236  9244 1
11077  9237  9245 1
11078  9238  9246 1
11079  9239  9247 1
11080  9240  9248 1
11081  9249  9257 1
11082  9249  9258 1
11083  9250  9259 1
11084  9252  9260 1
11085  9253  9261 1
11086  9254  9262 1
11087  9255  9263 1
11088  9256  9264 1
11089  9265  9273 1
11090  9265  9274 1
11091  9266  9275 1
11092  9268  9276 1
11093  9269  9277 1
11094  9270  9278 1
11095  9271  9279 1
11096  9272  9280 1
11097  9281  9289 1
11098  9281  9290 1
11099  9282  9291 1
11100  9284  9292 1
11101  9285  9293 1
11102  9286  9294 1
11103  9287  9295 1
11104  9288  9296 1
11105  9297  9305 1
11106  9297  9306 1
11107  9298  9307 1
11108  9300  9308 1
11109  9301  9309 1
11110  9302  9310 1
11111  9303  9311 1
11112  9304  9312 1
11113  9313  9321 1
11114  9313  9322 1
11115  9314  9323 1
11116  9316  9324 1
11117  9317  9325 1
11118  9318  9326 1
11119  9319  9327 1
11120  9320  9328 1
11121  9329  9337 1
11122  9329  9338 1
11123  9330  9339 1
11124  9332  9340 1
11125  9333  9341 1
11126  9334  9342 1
11127  9335  9343 1
11128  9336  9344 1
11129  9345  9353 1
11130  9345  9354 1
11131  9346  9355 1
11132  9348  9356 1
11133  9349  9357 1
11134  9350  9358 1
11135  9351  9359 1
11136  9352  9360 1
11137  9361  9369 1
11138  9361  9370 1
11139  9362  9371 1
11140  9364  9372 1
11141  9365  9373 1
11142  9366  9374 1
11143  9367  9375 1
11144  9368  9376 1
11145  9377  9385 1
11146  9377  9386 1
11147  9378  9387 1
11148  9380  9388 1
11149  9381  9389 1
11150  9382  9390 1
11151  9383  9391 1
11152  9384  9392 1
11153  9393  9401 1
11154  9393  9402 1
11155  9394  9403 1
11156  9396  9404 1
11157  9397  9405 1
11158  9398  9406 1
11159  9399  9407 1
11160  9400  9408 1
11161  9409  9417 1
11162  9409  9418 1
11163  9410  9419 1
11164  9412  9420 1
11165  9413  9421 1
11166  9414  9422 1
11167  9415  9423 1
11168  9416  9424 1
11169  9425  9433 1
11170  9425  9434 1
11171  9426  9435 1
11172  9428  9436 1
11173  9429  9437 1
11174  9430  9438 1
11175  9431  9439 1
11176  9432  9440 1
11177  9441  9449 1
11178  9441  9450 1
11179  9442  9451 1
11180  9444  9452 1
11181  9445  9453 1
11182  9446  9454 1
11183  9447  9455 1
11184  9448  9456 1
11185  9457  9465 1
11186  9457  9466 1
11187  9458  9467 1
11188  9460  9468 1
11189  9461  9469 1
11190  9462  9470 1
11191  9463  9471 1
11192  9464  9472 1
11193  9473  9481 1
11194  9473  9482 1
11195  9474  9483 1
11196  9476  9484 1
11197  9477  9485 1
11198  9478  9486 1
11199  9479  9487 1
11200  9480  9488 1
11201  9489  9497 1
11202  9489  9498 1
11203  9490  9499 1
11204  9492  9500 1
11205  9493  9501 1
11206  9494  9502 1
11207  9495  9503 1
11208  9496  9504 1
11209  9505  9513 1
11210  9505  9514 1
11211  9506  9515 1
11212  9508  9516 1
11213  9509  9517 1
11214  9510  9518 1
11215  9511  9519 1
11216  9512  9520 1
11217  9521  9529 1
11218  9521  9530 1
11219  9522  9531 1
11220  9524  9532 1
11221  9525  9533 1
11222  9526  9534 1
11223  9527  9535 1
11224  9528  9536 1
11225  9537  9545 1
11226  9537  9546 1
11227  9538  9547 1
11228  9540  9548 1
11229  9541  9549 1
11230  9542  9550 1
11231  9543  9551 1
11232  9544  9552 1
11233  9553  9561 1
11234  9553  9562 1
11235  9554  9563 1
11236  9556  9564 1
11237  9557  9565 1
11238  9558  9566 1
11239  9559  9567 1
11240  9560  9568 1
11241  9569  9577 1
11242  9569  9578 1
11243  9570  9579 1
11244  9572  9580 1
11245  9573  9581 1
11246  9574  9582 1
11247  9575  9583 1
11248  9576  9584 1
11249  9585  9593 1
11250  9585  9594 1
11251  9586  9595 1
11252  9588  9596 1
11253  9589  9597 1
11254  9590  9598 1
11255  9591  9599 1
11256  9592  9600 1
11257  9601  9609 1
11258  9601  9610 1
11259  9602  9611 1
11260  9604  9612 1
11261  9605  9613 1
11262  9606  9614 1
11263  9607  9615 1
11264  9608  9616 1
11265  9617  9625 1
11266  9617  9626 1
11267  9618  9627 1
11268  9620  9628 1
11269  9621  9629 1
11270  9622  9630 1
11271  9623  9631 1
11272  9624  9632 1
11273  9633  9641 1
11274  9633  9642 1
11275  9634  9643 1
11276  9636  9644 1
11277  9637  9645 1
11278  9638  9646 1
11279  9639  9647 1
11280  9640  9648 1
11281  9649  9657 1
11282  9649  9658 1
11283  9650  9659 1
11284  9652  9660 1
11285  9653  9661 1
11286  9654  9662 1
11287  9655  9663 1
11288  9656  9664 1
11289  9665  9673 1
11290  9665  9674 1
11291  9666  9675 1
11292  9668  9676 1
11293  9669  9677 1
11294  9670  9678 1
11295  9671  9679 1
11296  9672  9680 1
11297  9681  9689 1
11298  9681  9690 1
11299  9682  9691 1
11300  9684  9692 1
11301  9685  9693 1
11302  9686  9694 1
11303  9687  9695 1
11304  9688  9696 1
11305  9697  9705 1
11306  9697  9706 1
11307  9698  9707 1
11308  9700  9708 1
11309  9701  9709 1
11310  9702  9710 1
11311  9703  9711 1
11312  9704  9712 1
11313  9713  9721 1
11314  9713  9722 1
11315  9714  9723 1
11316  9716  9724 1
11317  9717  9725 1
11318  9718  9726 1
11319  9719  9727 1
11320  9720  9728 1
11321  9729  9737 1
11322  9729  9738 1
11323  9730  9739 1
11324  9732  9740 1
11325  9733  9741 1
11326  9734  9742 1
11327  9735  9743 1
11328  9736  9744 1
11329  9745  9753 1
11330  9745  9754 1
11331  9746  9755 1
11332  9748  9756 1
11333  9749  9757 1
11334  9750  9758 1
11335  9751  9759 1
11336  9752  9760 1
11337  9761  9769 1
11338  9761  9770 1
11339  9762  9771 1
11340  9764  9772 1
11341  9765  9773 1
11342  9766  9774 1
11343  9767  9775 1
11344  9768  9776 1
11345  9777  9785 1
11346  9777  9786 1
11347  9778  9787 1
11348  9780  9788 1
11349  9781  9789 1
11350  9782  9790 1
11351  9783  9791 1
11352  9784  9792 1
11353  9793  9801 1
11354  9793  9802 1
11355  9794  9803 1
11356  9796  9804 1
11357  9797  9805 1
11358  9798  9806 1
11359  9799  9807 1
11360  9800  9808 1
11361  9809  9817 1
11362  9809  9818 1
11363  9810  9819 1
11364  9812  9820 1
11365  9813  9821 1
11366  9814  9822 1
11367  9815  9823 1
11368  9816  9824 1
11369  9825  9833 1
11370  9825  9834 1
11371  9826  9835 1
11372  9828  9836 1
11373  9829  9837 1
11374  9830  9838 1
11375  9831  9839 1
11376  9832  9840 1
11377  9841  9849 1
11378  9841  9850 1
11379  9842  9851 1
11380  9844  9852 1
11381  9845  9853 1
11382  9846  9854 1
11383  9847  9855 1
11384  9848  9856 1
11385  9857  9865 1
11386  9857  9866 1
11387  9858  9867 1
11388  9860  9868 1
11389  9861  9869 1
11390  9862  9870 1
11391  9863  9871 1
11392  9864  9872 1
11393  9873  9881 1
11394  9873  9882 1
11395  9874  9883 1
11396  9876  9884 1
11397  9877  9885 1
11398  9878  9886 1
11399  9879  9887 1
11400  9880  9888 1
11401  9889  9897 1
11402  9889  9898 1
11403  9890  9899 1
11404  9892  9900 1
11405  9893  9901 1
11406  9894  9902 1
11407  9895  9903 1
11408  9896  9904 1
11409  9905  9913 1
11410  9905  9914 1
11411  9906  9915 1
11412  9908  9916 1
11413  9909  9917 1
11414  9910  9918 1
11415  9911  9919 1
11416  9912  9920 1
11417  9921  9929 1
11418  9921  9930 1
11419  9922  9931 1
11420  9924  9932 1
11421  9925  9933 1
11422  9926  9934 1
11423  9927  9935 1
11424  9928  9936 1
11425  9937  9945 1
11426  9937  9946 1
11427  9938  9947 1
11428  9940  9948 1
11429  9941  9949 1
11430  9942  9950 1
11431  9943  9951 1
11432  9944  9952 1
11433  9953  9961 1
11434  9953  9962 1
11435  9954  9963 1
11436  9956  9964 1
11437  9957  9965 1
11438  9958  9966 1
11439  9959  9967 1
11440  9960  9968 1
11441  9969  9977 1
11442  9969  9978 1
11443  9970  9979 1
11444  9972  9980 1
11445  9973  9981 1
11446  9974  9982 1
11447  9975  9983 1
11448  9976  9984 1
11449  9985  9993 1
11450  9985  9994 1
11451  9986  9995 1
11452  9988  9996 1
11453  9989  9997 1
11454  9990  9998 1
11455  9991  9999 1
11456  9992 10000 1
11457 10001 10009 1
11458 10001 10010 1
11459 10002 10011 1
11460 10004 10012 1
11461 10005 10013 1
11462 10006 10014 1
11463 10007 10015 1
11464 10008 10016 1
11465 10017 10025 1
11466 10017 10026 1
11467 10018 10027 1
11468 10020 10028 1
11469 10021 10029 1
11470 10022 10030 1
11471 10023 10031 1
11472 10024 10032 1
11473 10033 10041 1
11474 10033 10042 1
11475 10034 10043 1
11476 10036 10044 1
11477 10037 10045 1
11478 10038 10046 1
11479 10039 10047 1
11480 10040 10048 1
11481 10049 10057 1
11482 10049 10058 1
11483 10050 10059 1
11484 10052 10060 1
11485 10053 10061 1
11486 10054 10062 1
11487 10055 10063 1
11488 10056 10064 1
11489 10065 10073 1
11490 10065 10074 1
11491 10066 10075 1
11492 10068 10076 1
11493 10069 10077 1
11494 10070 10078 1
11495 10071 10079 1
11496 10072 10080 1
11497 10081 10089 1
11498 10081 10090 1
11499 10082 10091 1
11500 10084 10092 1
11501 10085 10093 1
11502 10086 10094 1
11503 10087 10095 1
11504 10088 10096 1
11505 10097 10105 1
11506 10097 10106 1
11507 10098 10107 1
11508 10100 10108 1
11509 10101 10109 1
11510 10102 10110 1
11511 10103 10111 1
11512 10104 10112 1
11513 10113 10121 1
11514 10113 10122 1
11515 10114 10123 1
11516 10116 10124 1
11517 10117 10125 1
11518 10118 10126 1
11519 10119 10127 1
11520 10120 10128 1
11521 10129 10137 1
11522 10129 10138 1
11523 10130 10139 1
11524 10132 10140 1
11525 10133 10141 1
11526 10134 10142 1
11527 10135 10143 1
11528 10136 10144 1
11529 10145 10153 1
11530 10145 10154 1
11531 10146 10155 1
11532 10148 10156 1
11533 10149 10157 1
11534 10150 10158 1
11535 10151 10159 1
11536 10152 10160 1
11537 10161 10169 1
11538 10161 10170 1
11539 10162 10171 1
11540 10164 10172 1
11541 10165 10173 1
11542 10166 10174 1
11543 10167 10175 1
11544 10168 10176 1
11545 10177 10185 1
11546 10177 10186 1
11547 10178 10187 1
11548 10180 10188 1
11549 10181 10189 1
11550 10182 10190 1
11551 10183 10191 1
11552 10184 10192 1
11553 10193 10201 1
11554 10193 10202 1
11555 10194 10203 1
11556 10196 10204 1
11557 10197 10205 1
11558 10198 10206 1
11559 10199 10207 1
11560 10200 10208 1
11561 10209 10217 1
11562 10209 10218 1
11563 10210 10219 1
11564 10212 10220 1
11565 10213 10221 1
11566 10214 10222 1
11567 10215 10223 1
11568 10216 10224 1
11569 10225 10233 1
11570 10225 10234 1
11571 10226 10235 1
11572 10228 10236 1
11573 10229 10237 1
11574 10230 10238 1
11575 10231 10239 1
11576 10232 10240 1
11577 10241 10249 1
11578 10241 10250 1
11579 10242 10251 1
11580 10244 10252 1
11581 10245 10253 1
11582 10246 10254 1
11583 10247 10255 1
11584 10248 10256 1
11585 10257 10265 1
11586 10257 10266 1
11587 10258 10267 1
11588 10260 10268 1
11589 10261 10269 1
11590 10262 10270 1
11591 10263 10271 1
11592 10264 10272 1
11593 10273 10281 1
11594 10273 10282 1
11595 10274 10283 1
11596 10276 10284 1
11597 10277 10285 1
11598 10278 10286 1
11599 10279 10287 1
11600 10280 10288 1
11601 10289 10297 1
11602 10289 10298 1
11603 10290 10299 1
11604 10292 10300 1
11605 10293 10301 1
11606 10294 10302 1
11607 10295 10303 1
11608 10296 10304 1
11609 10305 10313 1
11610 10305 10314 1
11611 10306 10315 1
11612 10308 10316 1
11613 10309 10317 1
11614 10310 10318 1
11615 10311 10319 1
11616 10312 10320 1
11617 10321 10329 1
11618 10321 10330 1
11619 10322 10331 1
11620 10324 10332 1
11621 10325 10333 1
11622 10326 10334 1
11623 10327 10335 1
11624 10328 10336 1
11625 10337 10345 1
11626 10337 10346 1
11627 10338 10347 1
11628 10340 10348 1
11629 10341 10349 1
11630 10342 10350 1
11631 10343 10351 1
11632 10344 10352 1
11633 10353 10361 1
11634 10353 10362 1
11635 10354 10363 1
11636 10356 10364 1
11637 10357 10365 1
11638 10358 10366 1
11639 10359 10367 1
11640 10360 10368 1
11641 10369 10377 1
11642 10369 10378 1
11643 10370 10379 1
11644 10372 10380 1
11645 10373 10381 1
11646 10374 10382 1
11647 10375 10383 1
11648 10376 10384 1
11649 10385 10393 1
11650 10385 10394 1
11651 10386 10395 1
11652 10388 10396 1
11653 10389 10397 1
11654 10390 10398 1
11655 10391 10399 1
11656 10392 10400 1
11657 10401 10409 1
11658 10401 10410 1
11659 10402 10411 1
11660 10404 10412 1
11661 10405 10413 1
11662 10406 10414 1
11663 10407 10415 1
11664 10408 10416 1
11665 10417 10425 1
11666 10417 10426 1
11667 10418 10427 1
11668 10420 10428 1
11669 10421 10429 1
11670 10422 10430 1
11671 10423 10431 1
11672 10424 10432 1
11673 10433 10441 1
11674 10433 10442 1
11675 10434 10443 1
11676 10436 10444 1
11677 10437 10445 1
11678 10438 10446 1
11679 10439 10447 1
11680 10440 10448 1
11681 10449 10457 1
11682 10449 10458 1
11683 10450 10459 1
11684 10452 10460 1
11685 10453 10461 1
11686 10454 10462 1
11687 10455 10463 1
11688 10456 10464 1
11689 10465 10473 1
11690 10465 10474 1
11691 10466 10475 1
11692 10468 10476 1
11693 10469 10477 1
11694 10470 10478 1
11695 10471 10479 1
11696 10472 10480 1
11697 10481 10489 1
11698 10481 10490 1
11699 10482 10491 1
11700 10484 10492 1
11701 10485 10493 1
11702 10486 10494 1
11703 10487 10495 1
11704 10488 10496 1
11705 10497 10505 1
11706 10497 10506 1
11707 10498 10507 1
11708 10500 10508 1
11709 10501 10509 1
11710 10502 10510 1
11711 10503 10511 1
11712 10504 10512 1
11713 10513 10521 1
11714 10513 10522 1
11715 10514 10523 1
11716 10516 10524 1
11717 10517 10525 1
11718 10518 10526 1
11719 10519 10527 1
11720 10520 10528 1
11721 10529 10537 1
11722 10529 10538 1
11723 10530 10539 1
11724 10532 10540 1
11725 10533 10541 1
11726 10534 10542 1
11727 10535 10543 1
11728 10536 10544 1
11729 10545 10553 1
11730 10545 10554 1
11731 10546 10555 1
11732 10548 10556 1
11733 10549 10557 1
11734 10550 10558 1
11735 10551 10559 1
11736 10552 10560 1
11737 10561 10569 1
11738 10561 10570 1
11739 10562 10571 1
11740 10564 10572 1
11741 10565 10573 1
11742 10566 10574 1
11743 10567 10575 1
11744 10568 10576 1
11745 10577 10585 1
11746 10577 10586 1
11747 10578 10587 1
11748 10580 10588 1
11749 10581 10589 1
11750 10582 10590 1
11751 10583 10591 1
11752 10584 10592 1
11753 10593 10601 1
11754 10593 10602 1
11755 10594 10603 1
11756 10596 10604 1
11757 10597 10605 1
11758 10598 10606 1
11759 10599 10607 1
11760 10600 10608 1
11761 10609 10617 1
11762 10609 10618 1
11763 10610 10619 1
11764 10612 10620 1
11765 10613 10621 1
11766 10614 10622 1
11767 10615 10623 1
11768 10616 10624 1
11769 10625 10633 1
11770 10625 10634 1
11771 10626 10635 1
11772 10628 10636 1
11773 10629 10637 1
11774 10630 10638 1
11775 10631 10639 1
11776 10632 10640 1
11777 10641 10649 1
11778 10641 10650 1
11779 10642 10651 1
11780 10644 10652 1
11781 10645 10653 1
11782 10646 10654 1
11783 10647 10655 1
11784 10648 10656 1
11785 10657 10665 1
11786 10657 10666 1
11787 10658 10667 1
11788 10660 10668 1
11789 10661 10669 1
11790 10662 10670 1
11791 10663 10671 1
11792 10664 10672 1
11793 10673 10681 1
11794 10673 10682 1
11795 10674 10683 1
11796 10676 10684 1
11797 10677 10685 1
11798 10678 10686 1
11799 10679 10687 1
11800 10680 10688 1
11801 10689 10697 1
11802 10689 10698 1
11803 10690 10699 1
11804 10692 10700 1
11805 10693 10701 1
11806 10694 10702 1
11807 10695 10703 1
11808 10696 10704 1
11809 10705 10713 1
11810 10705 10714 1
11811 10706 10715 1
11812 10708 10716 1
11813 10709 10717 1
11814 10710 10718 1
11815 10711 10719 1
11816 10712 10720 1
11817 10721 10729 1
11818 10721 10730 1
11819 10722 10731 1
11820 10724 10732 1
11821 10725 10733 1
11822 10726 10734 1
11823 10727 10735 1
11824 10728 10736 1
11825 10737 10745 1
11826 10737 10746 1
11827 10738 10747 1
11828 10740 10748 1
11829 10741 10749 1
11830 10742 10750 1
11831 10743 10751 1
11832 10744 10752 1
11833 10753 10761 1
11834 10753 10762 1
11835 10754 10763 1
11836 10756 10764 1
11837 10757 10765 1
11838 10758 10766 1
11839 10759 10767 1
11840 10760 10768 1
11841 10769 10777 1
11842 10769 10778 1
11843 10770 10779 1
11844 10772 10780 1
11845 10773 10781 1
11846 10774 10782 1
11847 10775 10783 1
11848 10776 10784 1
11849 10785 10793 1
11850 10785 10794 1
11851 10786 10795 1
11852 10788 10796 1
11853 10789 10797 1
11854 10790 10798 1
11855 10791 10799 1
11856 10792 10800 1
11857 10801 10809 1
11858 10801 10810 1
11859 10802 10811 1
11860 10804 10812 1
11861 10805 10813 1
11862 10806 10814 1
11863 10807 10815 1
11864 10808 10816 1
11865 10817 10825 1
11866 10817 10826 1
11867 10818 10827 1
11868 10820 10828 1
11869 10821 10829 1
11870 10822 10830 1
11871 10823 10831 1
11872 10824 10832 1
11873 10833 10841 1
11874 10833 10842 1
11875 10834 10843 1
11876 10836 10844 1
11877 10837 10845 1
11878 10838 10846 1
11879 10839 10847 1
11880 10840 10848 1
11881 10849 10857 1
11882 10849 10858 1
11883 10850 10859 1
11884 10852 10860 1
11885 10853 10861 1
11886 10854 10862 1
11887 10855 10863 1
11888 10856 10864 1
11889 10865 10873 1
11890 10865 10874 1
11891 10866 10875 1
11892 10868 10876 1
11893 10869 10877 1
11894 10870 10878 1
11895 10871 10879 1
11896 10872 10880 1
11897 10881 10889 1
11898 10881 10890 1
11899 10882 10891 1
11900 10884 10892 1
11901 10885 10893 1
11902 10886 10894 1
11903 10887 10895 1
11904 10888 10896 1
11905 10897 10905 1
11906 10897 10906 1
11907 10898 10907 1
11908 10900 10908 1
11909 10901 10909 1
11910 10902 10910 1
11911 10903 10911 1
11912 10904 10912 1
11913 10913 10921 1
11914 10913 10922 1
11915 10914 10923 1
11916 10916 10924 1
11917 10917 10925 1
11918 10918 10926 1
11919 10919 10927 1
11920 10920 10928 1
11921 10929 10937 1
11922 10929 10938 1
11923 10930 10939 1
11924 10932 10940 1
11925 10933 10941 1
11926 10934 10942 1
11927 10935 10943 1
11928 10936 10944 1
11929 10945 10953 1
11930 10945 10954 1
11931 10946 10955 1
11932 10948 10956 1
11933 10949 10957 1
11934 10950 10958 1
11935 10951 10959 1
11936 10952 10960 1
11937 10961 10969 1
11938 10961 10970 1
11939 10962 10971 1
11940 10964 10972 1
11941 10965 10973 1
11942 10966 10974 1
11943 10967 10975 1
11944 10968 10976 1
11945 10977 10985 1
11946 10977 10986 1
11947 10978 10987 1
11948 10980 10988 1
11949 10981 10989 1
11950 10982 10990 1
11951 10983 10991 1
11952 10984 10992 1
11953 10993 11001 1
11954 10993 11002 1
11955 10994 11003 1
11956 10996 11004 1
11957 10997 11005 1
11958 10998 11006 1
11959 10999 11007 1
11960 11000 11008 1
11961 11009 11017 1
11962 11009 11018 1
11963 11010 11019 1
11964 11012 11020 1
11965 11013 11021 1
11966 11014 11022 1
11967 11015 11023 1
11968 11016 11024 1
11969 11025 11033 1
11970 11025 11034 1
11971 11026 11035 1
11972 11028 11036 1
11973 11029 11037 1
11974 11030 11038 1
11975 11031 11039 1
11976 11032 11040 1
11977 11041 11049 1
11978 11041 11050 1
11979 11042 11051 1
11980 11044 11052 1
11981 11045 11053 1
11982 11046 11054 1
11983 11047 11055 1
11984 11048 11056 1
11985 11057 11065 1
11986 11057 11066 1
11987 11058 11067 1
11988 11060 11068 1
11989 11061 11069 1
11990 11062 11070 1
11991 11063 11071 1
11992 11064 11072 1
11993 11073 11081 1
11994 11073 11082 1
11995 11074 11083 1
11996 11076 11084 1
11997 11077 11085 1
11998 11078 11086 1
11999 11079 11087 1
12000 11080 11088 1
12001 11089 11097 1
12002 11089 11098 1
12003 11090 11099 1
12004 11092 11100 1
12005 11093 11101 1
12006 11094 11102 1
12007 11095 11103 1
12008 11096 11104 1
12009 11105 11113 1
12010 11105 11114 1
12011 11106 11115 1
12012 11108 11116 1
12013 11109 11117 1
12014 11110 11118 1
12015 11111 11119 1
12016 11112 11120 1
12017 11121 11129 1
12018 11121 11130 1
12019 11122 11131 1
12020 11124 11132 1
12021 11125 11133 1
12022 11126 11134 1
12023 11127 11135 1
12024 11128 11136 1
12025 11137 11145 1
12026 11137 11146 1
12027 11138 11147 1
12028 11140 11148 1
12029 11141 11149 1
12030 11142 11150 1
12031 11143 11151 1
12032 11144 11152 1
12033 11153 11161 1
12034 11153 11162 1
12035 11154 11163 1
12036 11156 11164 1
12037 11157 11165 1
12038 11158 11166 1
12039 11159 11167 1
12040 11160 11168 1
12041 11169 11177 1
12042 11169 11178 1
12043 11170 11179 1
12044 11172 11180 1
12045 11173 11181 1
12046 11174 11182 1
12047 11175 11183 1
12048 11176 11184 1
12049 11185 11193 1
12050 11185 11194 1
12051 11186 11195 1
12052 11188 11196 1
12053 11189 11197 1
12054 11190 11198 1
12055 11191 11199 1
12056 11192 11200 1
12057 11201 11209 1
12058 11201 11210 1
12059 11202 11211 1
12060 11204 11212 1
12061 11205 11213 1
12062 11206 11214 1
12063 11207 11215 1
12064 11208 11216 1
12065 11217 11225 1
12066 11217 11226 1
12067 11218 11227 1
12068 11220 11228 1
12069 11221 11229 1
12070 11222 11230 1
12071 11223 11231 1
12072 11224 11232 1
12073 11233 11241 1
12074 11233 11242 1
12075 11234 11243 1
12076 11236 11244 1
12077 11237 11245 1
12078 11238 11246 1
12079 11239 11247 1
12080 11240 11248 1
12081 11249 11257 1
12082 11249 11258 1
12083 11250 11259 1
12084 11252 11260 1
12085 11253 11261 1
12086 11254 11262 1
12087 11255 11263 1
12088 11256 11264 1
12089 11265 11273 1
12090 11265 11274 1
12091 11266 11275 1
12092 11268 11276 1
12093 11269 11277 1
12094 11270 11278 1
12095 11271 11279 1
12096 11272 11280 1
12097 11281 11289 1
12098 11281 11290 1
12099 11282 11291 1
12100 11284 11292 1
12101 11285 11293 1
12102 11286 11294 1
12103 11287 11295 1
12104 11288 11296 1
12105 11297 11305 1
12106 11297 11306 1
12107 11298 11307 1
12108 11300 11308 1
12109 11301 11309 1
12110 11302 11310 1
12111 11303 11311 1
12112 11304 11312 1
12113 11313 11321 1
12114 11313 11322 1
12115 11314 11323 1
12116 11316 11324 1
12117 11317 11325 1
12118 11318 11326 1
12119 11319 11327 1
12120 11320 11328 1
12121 11329 11337 1
12122 11329 11338 1
12123 11330 11339 1
12124 11332 11340 1
12125 11333 11341 1
12126 11334 11342 1
12127 11335 11343 1
12128 11336 11344 1
12129 11345 11353 1
12130 11345 11354 1
12131 11346 11355 1
12132 11348 11356 1
12133 11349 11357 1
12134 11350 11358 1
12135 11351 11359 1
12136 11352 11360 1
12137 11361 11369 1
12138 11361 11370 1
12139 11362 11371 1
12140 11364 11372 1
12141 11365 11373 1
12142 11366 11374 1
12143 11367 11375 1
12144 11368 11376 1
12145 11377 11385 1
12146 11377 11386 1
12147 11378 11387 1
12148 11380 11388 1
12149 11381 11389 1
12150 11382 11390 1
12151 11383 11391 1
12152 11384 11392 1
12153 11393 11401 1
12154 11393 11402 1
12155 11394 11403 1
12156 11396 11404 1
12157 11397 11405 1
12158 11398 11406 1
12159 11399 11407 1
12160 11400 11408 1
12161 11409 11417 1
12162 11409 11418 1
12163 11410 11419 1
12164 11412 11420 1
12165 11413 11421 1
12166 11414 11422 1
12167 11415 11423 1
12168 11416 11424 1
12169 11425 11433 1
12170 11425 11434 1
12171 11426 11435 1
12172 11428 11436 1
12173 11429 11437 1
12174 11430 11438 1
12175 11431 11439 1
12176 11432 11440 1
12177 11441 11449 1
12178 11441 11450 1
12179 11442 11451 1
12180 11444 11452 1
12181 11445 11453 1
12182 11446 11454 1
12183 11447 11455 1
12184 11448 11456 1
12185 11457 11465 1
12186 11457 11466 1
12187 11458 11467 1
12188 11460 11468 1
12189 11461 11469 1
12190 11462 11470 1
12191 11463 11471 1
12192 11464 11472 1
12193 11473 11481 1
12194 11473 11482 1
12195 11474 11483 1
12196 11476 11484 1
12197 11477 11485 1
12198 11478 11486 1
12199 11479 11487 1
12200 11480 11488 1
12201 11489 11497 1
12202 11489 11498 1
12203 11490 11499 1
12204 11492 11500 1
12205 11493 11501 1
12206 11494 11502 1
12207 11495 11503 1
12208 11496 11504 1
12209 11505 11513 1
12210 11505 11514 1
12211 11506 11515 1
12212 11508 11516 1
12213 11509 11517 1
12214 11510 11518 1
12215 11511 11519 1
12216 11512 11520 1
@<TRIPOS>SUBSTRUCTURE
      1 PS                1 ****               0 ****  **** 
      2 PS               17 ****               0 ****  **** 
      3 PS               33 ****               0 ****  **** 
      4 PS               49 ****               0 ****  **** 
      5 PS               65 ****               0 ****  **** 
      6 PS               81 ****               0 ****  **** 
      7 PS               97 ****               0 ****  **** 
      8 PS              113 ****               0 ****  **** 
      9 PS              129 ****               0 ****  **** 
     10 PS              145 ****               0 ****  **** 
     11 PS              161 ****               0 ****  **** 
     12 PS              177 ****               0 ****  **** 
     13 PS              193 ****               0 ****  **** 
     14 PS              209 ****               0 ****  **** 
     15 PS              225 ****               0 ****  **** 
     16 PS              241 ****               0 ****  **** 
     17 PS              257 ****               0 ****  **** 
     18 PS              273 ****               0 ****  **** 
     19 PS              289 ****               0 ****  **** 
     20 PS              305 ****               0 ****  **** 
     21 PS              321 ****               0 ****  **** 
     22 PS              337 ****               0 ****  **** 
     23 PS              353 ****               0 ****  **** 
     24 PS              369 ****               0 ****  **** 
     25 PS              385 ****               0 ****  **** 
     26 PS              401 ****               0 ****  **** 
     27 PS              417 ****               0 ****  **** 
     28 PS              433 ****               0 ****  **** 
     29 PS              449 ****               0 ****  **** 
     30 PS              465 ****               0 ****  **** 
     31 PS              481 ****               0 ****  **** 
     32 PS              497 ****               0 ****  **** 
     33 PS              513 ****               0 ****  **** 
     34 PS              529 ****               0 ****  **** 
     35 PS              545 ****               0 ****  **** 
     36 PS              561 ****               0 ****  **** 
     37 PS              577 ****               0 ****  **** 
     38 PS              593 ****               0 ****  **** 
     39 PS              609 ****               0 ****  **** 
     40 PS              625 ****               0 ****  **** 
     41 PS              641 ****               0 ****  **** 
     42 PS              657 ****               0 ****  **** 
     43 PS              673 ****               0 ****  **** 
     44 PS              689 ****               0 ****  **** 
     45 PS              705 ****               0 ****  **** 
     46 PS              721 ****               0 ****  **** 
     47 PS              737 ****               0 ****  **** 
     48 PS              753 ****               0 ****  **** 
     49 PS              769 ****               0 ****  **** 
     50 PS              785 ****               0 ****  **** 
     51 PS              801 ****               0 ****  **** 
     52 PS              817 ****               0 ****  **** 
     53 PS              833 ****               0 ****  **** 
     54 PS              849 ****               0 ****  **** 
     55 PS              865 ****               0 ****  **** 
     56 PS              881 ****               0 ****  **** 
     57 PS              897 ****               0 ****  **** 
     58 PS              913 ****               0 ****  **** 
     59 PS              929 ****               0 ****  **** 
     60 PS              945 ****               0 ****  **** 
     61 PS              961 ****               0 ****  **** 
     62 PS              977 ****               0 ****  **** 
     63 PS              993 ****               0 ****  **** 
     64 PS             1009 ****               0 ****  **** 
     65 PS             1025 ****               0 ****  **** 
     66 PS             1041 ****               0 ****  **** 
     67 PS             1057 ****               0 ****  **** 
     68 PS             1073 ****               0 ****  **** 
     69 PS             1089 ****               0 ****  **** 
     70 PS             1105 ****               0 ****  **** 
     71 PS             1121 ****               0 ****  **** 
     72 PS             1137 ****               0 ****  **** 
     73 PS             1153 ****               0 ****  **** 
     74 PS             1169 ****               0 ****  **** 
     75 PS             1185 ****               0 ****  **** 
     76 PS             1201 ****               0 ****  **** 
     77 PS             1217 ****               0 ****  **** 
     78 PS             1233 ****               0 ****  **** 
     79 PS             1249 ****               0 ****  **** 
     80 PS             1265 ****               0 ****  **** 
     81 PS             1281 ****               0 ****  **** 
     82 PS             1297 ****               0 ****  **** 
     83 PS             1313 ****               0 ****  **** 
     84 PS             1329 ****               0 ****  **** 
     85 PS             1345 ****               0 ****  **** 
     86 PS             1361 ****               0 ****  **** 
     87 PS             1377 ****               0 ****  **** 
     88 PS             1393 ****               0 ****  **** 
     89 PS             1409 ****               0 ****  **** 
     90 PS             1425 ****               0 ****  **** 
     91 PS             1441 ****               0 ****  **** 
     92 PS             1457 ****               0 ****  **** 
     93 PS             1473 ****               0 ****  **** 
     94 PS             1489 ****               0 ****  **** 
     95 PS             1505 ****               0 ****  **** 
     96 PS             1521 ****               0 ****  **** 
     97 PS             1537 ****               0 ****  **** 
     98 PS             1553 ****               0 ****  **** 
     99 PS             1569 ****               0 ****  **** 
    100 PS             1585 ****               0 ****  **** 
    101 PS             1601 ****               0 ****  **** 
    102 PS             1617 ****               0 ****  **** 
    103 PS             1633 ****               0 ****  **** 
    104 PS             1649 ****               0 ****  **** 
    105 PS             1665 ****               0 ****  **** 
    106 PS             1681 ****               0 ****  **** 
    107 PS             1697 ****               0 ****  **** 
    108 PS             1713 ****               0 ****  **** 
    109 PS             1729 ****               0 ****  **** 
    110 PS             1745 ****               0 ****  **** 
    111 PS             1761 ****               0 ****  **** 
    112 PS             1777 ****               0 ****  **** 
    113 PS             1793 ****               0 ****  **** 
    114 PS             1809 ****               0 ****  **** 
    115 PS             1825 ****               0 ****  **** 
    116 PS             1841 ****               0 ****  **** 
    117 PS             1857 ****               0 ****  **** 
    118 PS             1873 ****               0 ****  **** 
    119 PS             1889 ****               0 ****  **** 
    120 PS             1905 ****               0 ****  **** 
    121 PS             1921 ****               0 ****  **** 
    122 PS             1937 ****               0 ****  **** 
    123 PS             1953 ****               0 ****  **** 
    124 PS             1969 ****               0 ****  **** 
    125 PS             1985 ****               0 ****  **** 
    126 PS             2001 ****               0 ****  **** 
    127 PS             2017 ****               0 ****  **** 
    128 PS             2033 ****               0 ****  **** 
    129 PS             2049 ****               0 ****  **** 
    130 PS             2065 ****               0 ****  **** 
    131 PS             2081 ****               0 ****  **** 
    132 PS             2097 ****               0 ****  **** 
    133 PS             2113 ****               0 ****  **** 
    134 PS             2129 ****               0 ****  **** 
    135 PS             2145 ****               0 ****  **** 
    136 PS             2161 ****               0 ****  **** 
    137 PS             2177 ****               0 ****  **** 
    138 PS             2193 ****               0 ****  **** 
    139 PS             2209 ****               0 ****  **** 
    140 PS             2225 ****               0 ****  **** 
    141 PS             2241 ****               0 ****  **** 
    142 PS             2257 ****               0 ****  **** 
    143 PS             2273 ****               0 ****  **** 
    144 PS             2289 ****               0 ****  **** 
    145 PS             2305 ****               0 ****  **** 
    146 PS             2321 ****               0 ****  **** 
    147 PS             2337 ****               0 ****  **** 
    148 PS             2353 ****               0 ****  **** 
    149 PS             2369 ****               0 ****  **** 
    150 PS             2385 ****               0 ****  **** 
    151 PS             2401 ****               0 ****  **** 
    152 PS             2417 ****               0 ****  **** 
    153 PS             2433 ****               0 ****  **** 
    154 PS             2449 ****               0 ****  **** 
    155 PS             2465 ****               0 ****  **** 
    156 PS             2481 ****               0 ****  **** 
    157 PS             2497 ****               0 ****  **** 
    158 PS             2513 ****               0 ****  **** 
    159 PS             2529 ****               0 ****  **** 
    160 PS             2545 ****               0 ****  **** 
    161 PS             2561 ****               0 ****  **** 
    162 PS             2577 ****               0 ****  **** 
    163 PS             2593 ****               0 ****  **** 
    164 PS             2609 ****               0 ****  **** 
    165 PS             2625 ****               0 ****  **** 
    166 PS             2641 ****               0 ****  **** 
    167 PS             2657 ****               0 ****  **** 
    168 PS             2673 ****               0 ****  **** 
    169 PS             2689 ****               0 ****  **** 
    170 PS             2705 ****               0 ****  **** 
    171 PS             2721 ****               0 ****  **** 
    172 PS             2737 ****               0 ****  **** 
    173 PS             2753 ****               0 ****  **** 
    174 PS             2769 ****               0 ****  **** 
    175 PS             2785 ****               0 ****  **** 
    176 PS             2801 ****               0 ****  **** 
    177 PS             2817 ****               0 ****  **** 
    178 PS             2833 ****               0 ****  **** 
    179 PS             2849 ****               0 ****  **** 
    180 PS             2865 ****               0 ****  **** 
    181 PS             2881 ****               0 ****  **** 
    182 PS             2897 ****               0 ****  **** 
    183 PS             2913 ****               0 ****  **** 
    184 PS             2929 ****               0 ****  **** 
    185 PS             2945 ****               0 ****  **** 
    186 PS             2961 ****               0 ****  **** 
    187 PS             2977 ****               0 ****  **** 
    188 PS             2993 ****               0 ****  **** 
    189 PS             3009 ****               0 ****  **** 
    190 PS             3025 ****               0 ****  **** 
    191 PS             3041 ****               0 ****  **** 
    192 PS             3057 ****               0 ****  **** 
    193 PS             3073 ****               0 ****  **** 
    194 PS             3089 ****               0 ****  **** 
    195 PS             3105 ****               0 ****  **** 
    196 PS             3121 ****               0 ****  **** 
    197 PS             3137 ****               0 ****  **** 
    198 PS             3153 ****               0 ****  **** 
    199 PS             3169 ****               0 ****  **** 
    200 PS             3185 ****               0 ****  **** 
    201 PS             3201 ****               0 ****  **** 
    202 PS             3217 ****               0 ****  **** 
    203 PS             3233 ****               0 ****  **** 
    204 PS             3249 ****               0 ****  **** 
    205 PS             3265 ****               0 ****  **** 
    206 PS             3281 ****               0 ****  **** 
    207 PS             3297 ****               0 ****  **** 
    208 PS             3313 ****               0 ****  **** 
    209 PS             3329 ****               0 ****  **** 
    210 PS             3345 ****               0 ****  **** 
    211 PS             3361 ****               0 ****  **** 
    212 PS             3377 ****               0 ****  **** 
    213 PS             3393 ****               0 ****  **** 
    214 PS             3409 ****               0 ****  **** 
    215 PS             3425 ****               0 ****  **** 
    216 PS             3441 ****               0 ****  **** 
    217 PS             3457 ****               0 ****  **** 
    218 PS             3473 ****               0 ****  **** 
    219 PS             3489 ****               0 ****  **** 
    220 PS             3505 ****               0 ****  **** 
    221 PS             3521 ****               0 ****  **** 
    222 PS             3537 ****               0 ****  **** 
    223 PS             3553 ****               0 ****  **** 
    224 PS             3569 ****               0 ****  **** 
    225 PS             3585 ****               0 ****  **** 
    226 PS             3601 ****               0 ****  **** 
    227 PS             3617 ****               0 ****  **** 
    228 PS             3633 ****               0 ****  **** 
    229 PS             3649 ****               0 ****  **** 
    230 PS             3665 ****               0 ****  **** 
    231 PS             3681 ****               0 ****  **** 
    232 PS             3697 ****               0 ****  **** 
    233 PS             3713 ****               0 ****  **** 
    234 PS             3729 ****               0 ****  **** 
    235 PS             3745 ****               0 ****  **** 
    236 PS             3761 ****               0 ****  **** 
    237 PS             3777 ****               0 ****  **** 
    238 PS             3793 ****               0 ****  **** 
    239 PS             3809 ****               0 ****  **** 
    240 PS             3825 ****               0 ****  **** 
    241 PS             3841 ****               0 ****  **** 
    242 PS             3857 ****               0 ****  **** 
    243 PS             3873 ****               0 ****  **** 
    244 PS             3889 ****               0 ****  **** 
    245 PS             3905 ****               0 ****  **** 
    246 PS             3921 ****               0 ****  **** 
    247 PS             3937 ****               0 ****  **** 
    248 PS             3953 ****               0 ****  **** 
    249 PS             3969 ****               0 ****  **** 
    250 PS             3985 ****               0 ****  **** 
    251 PS             4001 ****               0 ****  **** 
    252 PS             4017 ****               0 ****  **** 
    253 PS             4033 ****               0 ****  **** 
    254 PS             4049 ****               0 ****  **** 
    255 PS             4065 ****               0 ****  **** 
    256 PS             4081 ****               0 ****  **** 
    257 PS             4097 ****               0 ****  **** 
    258 PS             4113 ****               0 ****  **** 
    259 PS             4129 ****               0 ****  **** 
    260 PS             4145 ****               0 ****  **** 
    261 PS             4161 ****               0 ****  **** 
    262 PS             4177 ****               0 ****  **** 
    263 PS             4193 ****               0 ****  **** 
    264 PS             4209 ****               0 ****  **** 
    265 PS             4225 ****               0 ****  **** 
    266 PS             4241 ****               0 ****  **** 
    267 PS             4257 ****               0 ****  **** 
    268 PS             4273 ****               0 ****  **** 
    269 PS             4289 ****               0 ****  **** 
    270 PS             4305 ****               0 ****  **** 
    271 PS             4321 ****               0 ****  **** 
    272 PS             4337 ****               0 ****  **** 
    273 PS             4353 ****               0 ****  **** 
    274 PS             4369 ****               0 ****  **** 
    275 PS             4385 ****               0 ****  **** 
    276 PS             4401 ****               0 ****  **** 
    277 PS             4417 ****               0 ****  **** 
    278 PS             4433 ****               0 ****  **** 
    279 PS             4449 ****               0 ****  **** 
    280 PS             4465 ****               0 ****  **** 
    281 PS             4481 ****               0 ****  **** 
    282 PS             4497 ****               0 ****  **** 
    283 PS             4513 ****               0 ****  **** 
    284 PS             4529 ****               0 ****  **** 
    285 PS             4545 ****               0 ****  **** 
    286 PS             4561 ****               0 ****  **** 
    287 PS             4577 ****               0 ****  **** 
    288 PS             4593 ****               0 ****  **** 
    289 PS             4609 ****               0 ****  **** 
    290 PS             4625 ****               0 ****  **** 
    291 PS             4641 ****               0 ****  **** 
    292 PS             4657 ****               0 ****  **** 
    293 PS             4673 ****               0 ****  **** 
    294 PS             4689 ****               0 ****  **** 
    295 PS             4705 ****               0 ****  **** 
    296 PS             4721 ****               0 ****  **** 
    297 PS             4737 ****               0 ****  **** 
    298 PS             4753 ****               0 ****  **** 
    299 PS             4769 ****               0 ****  **** 
    300 PS             4785 ****               0 ****  **** 
    301 PS             4801 ****               0 ****  **** 
    302 PS             4817 ****               0 ****  **** 
    303 PS             4833 ****               0 ****  **** 
    304 PS             4849 ****               0 ****  **** 
    305 PS             4865 ****               0 ****  **** 
    306 PS             4881 ****               0 ****  **** 
    307 PS             4897 ****               0 ****  **** 
    308 PS             4913 ****               0 ****  **** 
    309 PS             4929 ****               0 ****  **** 
    310 PS             4945 ****               0 ****  **** 
    311 PS             4961 ****               0 ****  **** 
    312 PS             4977 ****               0 ****  **** 
    313 PS             4993 ****               0 ****  **** 
    314 PS             5009 ****               0 ****  **** 
    315 PS             5025 ****               0 ****  **** 
    316 PS             5041 ****               0 ****  **** 
    317 PS             5057 ****               0 ****  **** 
    318 PS             5073 ****               0 ****  **** 
    319 PS             5089 ****               0 ****  **** 
    320 PS             5105 ****               0 ****  **** 
    321 PS             5121 ****               0 ****  **** 
    322 PS             5137 ****               0 ****  **** 
    323 PS             5153 ****               0 ****  **** 
    324 PS             5169 ****               0 ****  **** 
    325 PS             5185 ****               0 ****  **** 
    326 PS             5201 ****               0 ****  **** 
    327 PS             5217 ****               0 ****  **** 
    328 PS             5233 ****               0 ****  **** 
    329 PS             5249 ****               0 ****  **** 
    330 PS             5265 ****               0 ****  **** 
    331 PS             5281 ****               0 ****  **** 
    332 PS             5297 ****               0 ****  **** 
    333 PS             5313 ****               0 ****  **** 
    334 PS             5329 ****               0 ****  **** 
    335 PS             5345 ****               0 ****  **** 
    336 PS             5361 ****               0 ****  **** 
    337 PS             5377 ****               0 ****  **** 
    338 PS             5393 ****               0 ****  **** 
    339 PS             5409 ****               0 ****  **** 
    340 PS             5425 ****               0 ****  **** 
    341 PS             5441 ****               0 ****  **** 
    342 PS             5457 ****               0 ****  **** 
    343 PS             5473 ****               0 ****  **** 
    344 PS             5489 ****               0 ****  **** 
    345 PS             5505 ****               0 ****  **** 
    346 PS             5521 ****               0 ****  **** 
    347 PS             5537 ****               0 ****  **** 
    348 PS             5553 ****               0 ****  **** 
    349 PS             5569 ****               0 ****  **** 
    350 PS             5585 ****               0 ****  **** 
    351 PS             5601 ****               0 ****  **** 
    352 PS             5617 ****               0 ****  **** 
    353 PS             5633 ****               0 ****  **** 
    354 PS             5649 ****               0 ****  **** 
    355 PS             5665 ****               0 ****  **** 
    356 PS             5681 ****               0 ****  **** 
    357 PS             5697 ****               0 ****  **** 
    358 PS             5713 ****               0 ****  **** 
    359 PS             5729 ****               0 ****  **** 
    360 PS             5745 ****               0 ****  **** 
    361 PS             5761 ****               0 ****  **** 
    362 PS             5777 ****               0 ****  **** 
    363 PS             5793 ****               0 ****  **** 
    364 PS             5809 ****               0 ****  **** 
    365 PS             5825 ****               0 ****  **** 
    366 PS             5841 ****               0 ****  **** 
    367 PS             5857 ****               0 ****  **** 
    368 PS             5873 ****               0 ****  **** 
    369 PS             5889 ****               0 ****  **** 
    370 PS             5905 ****               0 ****  **** 
    371 PS             5921 ****               0 ****  **** 
    372 PS             5937 ****               0 ****  **** 
    373 PS             5953 ****               0 ****  **** 
    374 PS             5969 ****               0 ****  **** 
    375 PS             5985 ****               0 ****  **** 
    376 PS             6001 ****               0 ****  **** 
    377 PS             6017 ****               0 ****  **** 
    378 PS             6033 ****               0 ****  **** 
    379 PS             6049 ****               0 ****  **** 
    380 PS             6065 ****               0 ****  **** 
    381 PS             6081 ****               0 ****  **** 
    382 PS             6097 ****               0 ****  **** 
    383 PS             6113 ****               0 ****  **** 
    384 PS             6129 ****               0 ****  **** 
    385 PS             6145 ****               0 ****  **** 
    386 PS             6161 ****               0 ****  **** 
    387 PS             6177 ****               0 ****  **** 
    388 PS             6193 ****               0 ****  **** 
    389 PS             6209 ****               0 ****  **** 
    390 PS             6225 ****               0 ****  **** 
    391 PS             6241 ****               0 ****  **** 
    392 PS             6257 ****               0 ****  **** 
    393 PS             6273 ****               0 ****  **** 
    394 PS             6289 ****               0 ****  **** 
    395 PS             6305 ****               0 ****  **** 
    396 PS             6321 ****               0 ****  **** 
    397 PS             6337 ****               0 ****  **** 
    398 PS             6353 ****               0 ****  **** 
    399 PS             6369 ****               0 ****  **** 
    400 PS             6385 ****               0 ****  **** 
    401 PS             6401 ****               0 ****  **** 
    402 PS             6417 ****               0 ****  **** 
    403 PS             6433 ****               0 ****  **** 
    404 PS             6449 ****               0 ****  **** 
    405 PS             6465 ****               0 ****  **** 
    406 PS             6481 ****               0 ****  **** 
    407 PS             6497 ****               0 ****  **** 
    408 PS             6513 ****               0 ****  **** 
    409 PS             6529 ****               0 ****  **** 
    410 PS             6545 ****               0 ****  **** 
    411 PS             6561 ****               0 ****  **** 
    412 PS             6577 ****               0 ****  **** 
    413 PS             6593 ****               0 ****  **** 
    414 PS             6609 ****               0 ****  **** 
    415 PS             6625 ****               0 ****  **** 
    416 PS             6641 ****               0 ****  **** 
    417 PS             6657 ****               0 ****  **** 
    418 PS             6673 ****               0 ****  **** 
    419 PS             6689 ****               0 ****  **** 
    420 PS             6705 ****               0 ****  **** 
    421 PS             6721 ****               0 ****  **** 
    422 PS             6737 ****               0 ****  **** 
    423 PS             6753 ****               0 ****  **** 
    424 PS             6769 ****               0 ****  **** 
    425 PS             6785 ****               0 ****  **** 
    426 PS             6801 ****               0 ****  **** 
    427 PS             6817 ****               0 ****  **** 
    428 PS             6833 ****               0 ****  **** 
    429 PS             6849 ****               0 ****  **** 
    430 PS             6865 ****               0 ****  **** 
    431 PS             6881 ****               0 ****  **** 
    432 PS             6897 ****               0 ****  **** 
    433 PS             6913 ****               0 ****  **** 
    434 PS             6929 ****               0 ****  **** 
    435 PS             6945 ****               0 ****  **** 
    436 PS             6961 ****               0 ****  **** 
    437 PS             6977 ****               0 ****  **** 
    438 PS             6993 ****               0 ****  **** 
    439 PS             7009 ****               0 ****  **** 
    440 PS             7025 ****               0 ****  **** 
    441 PS             7041 ****               0 ****  **** 
    442 PS             7057 ****               0 ****  **** 
    443 PS             7073 ****               0 ****  **** 
    444 PS             7089 ****               0 ****  **** 
    445 PS             7105 ****               0 ****  **** 
    446 PS             7121 ****               0 ****  **** 
    447 PS             7137 ****               0 ****  **** 
    448 PS             7153 ****               0 ****  **** 
    449 PS             7169 ****               0 ****  **** 
    450 PS             7185 ****               0 ****  **** 
    451 PS             7201 ****               0 ****  **** 
    452 PS             7217 ****               0 ****  **** 
    453 PS             7233 ****               0 ****  **** 
    454 PS             7249 ****               0 ****  **** 
    455 PS             7265 ****               0 ****  **** 
    456 PS             7281 ****               0 ****  **** 
    457 PS             7297 ****               0 ****  **** 
    458 PS             7313 ****               0 ****  **** 
    459 PS             7329 ****               0 ****  **** 
    460 PS             7345 ****               0 ****  **** 
    461 PS             7361 ****               0 ****  **** 
    462 PS             7377 ****               0 ****  **** 
    463 PS             7393 ****               0 ****  **** 
    464 PS             7409 ****               0 ****  **** 
    465 PS             7425 ****               0 ****  **** 
    466 PS             7441 ****               0 ****  **** 
    467 PS             7457 ****               0 ****  **** 
    468 PS             7473 ****               0 ****  **** 
    469 PS             7489 ****               0 ****  **** 
    470 PS             7505 ****               0 ****  **** 
    471 PS             7521 ****               0 ****  **** 
    472 PS             7537 ****               0 ****  **** 
    473 PS             7553 ****               0 ****  **** 
    474 PS             7569 ****               0 ****  **** 
    475 PS             7585 ****               0 ****  **** 
    476 PS             7601 ****               0 ****  **** 
    477 PS             7617 ****               0 ****  **** 
    478 PS             7633 ****               0 ****  **** 
    479 PS             7649 ****               0 ****  **** 
    480 PS             7665 ****               0 ****  **** 
    481 PS             7681 ****               0 ****  **** 
    482 PS             7697 ****               0 ****  **** 
    483 PS             7713 ****               0 ****  **** 
    484 PS             7729 ****               0 ****  **** 
    485 PS             7745 ****               0 ****  **** 
    486 PS             7761 ****               0 ****  **** 
    487 PS             7777 ****               0 ****  **** 
    488 PS             7793 ****               0 ****  **** 
    489 PS             7809 ****               0 ****  **** 
    490 PS             7825 ****               0 ****  **** 
    491 PS             7841 ****               0 ****  **** 
    492 PS             7857 ****               0 ****  **** 
    493 PS             7873 ****               0 ****  **** 
    494 PS             7889 ****               0 ****  **** 
    495 PS             7905 ****               0 ****  **** 
    496 PS             7921 ****               0 ****  **** 
    497 PS             7937 ****               0 ****  **** 
    498 PS             7953 ****               0 ****  **** 
    499 PS             7969 ****               0 ****  **** 
    500 PS             7985 ****               0 ****  **** 
    501 PS             8001 ****               0 ****  **** 
    502 PS             8017 ****               0 ****  **** 
    503 PS             8033 ****               0 ****  **** 
    504 PS             8049 ****               0 ****  **** 
    505 PS             8065 ****               0 ****  **** 
    506 PS             8081 ****               0 ****  **** 
    507 PS             8097 ****               0 ****  **** 
    508 PS             8113 ****               0 ****  **** 
    509 PS             8129 ****               0 ****  **** 
    510 PS             8145 ****               0 ****  **** 
    511 PS             8161 ****               0 ****  **** 
    512 PS             8177 ****               0 ****  **** 
    513 PS             8193 ****               0 ****  **** 
    514 PS             8209 ****               0 ****  **** 
    515 PS             8225 ****               0 ****  **** 
    516 PS             8241 ****               0 ****  **** 
    517 PS             8257 ****               0 ****  **** 
    518 PS             8273 ****               0 ****  **** 
    519 PS             8289 ****               0 ****  **** 
    520 PS             8305 ****               0 ****  **** 
    521 PS             8321 ****               0 ****  **** 
    522 PS             8337 ****               0 ****  **** 
    523 PS             8353 ****               0 ****  **** 
    524 PS             8369 ****               0 ****  **** 
    525 PS             8385 ****               0 ****  **** 
    526 PS             8401 ****               0 ****  **** 
    527 PS             8417 ****               0 ****  **** 
    528 PS             8433 ****               0 ****  **** 
    529 PS             8449 ****               0 ****  **** 
    530 PS             8465 ****               0 ****  **** 
    531 PS             8481 ****               0 ****  **** 
    532 PS             8497 ****               0 ****  **** 
    533 PS             8513 ****               0 ****  **** 
    534 PS             8529 ****               0 ****  **** 
    535 PS             8545 ****               0 ****  **** 
    536 PS             8561 ****               0 ****  **** 
    537 PS             8577 ****               0 ****  **** 
    538 PS             8593 ****               0 ****  **** 
    539 PS             8609 ****               0 ****  **** 
    540 PS             8625 ****               0 ****  **** 
    541 PS             8641 ****               0 ****  **** 
    542 PS             8657 ****               0 ****  **** 
    543 PS             8673 ****               0 ****  **** 
    544 PS             8689 ****               0 ****  **** 
    545 PS             8705 ****               0 ****  **** 
    546 PS             8721 ****               0 ****  **** 
    547 PS             8737 ****               0 ****  **** 
    548 PS             8753 ****               0 ****  **** 
    549 PS             8769 ****               0 ****  **** 
    550 PS             8785 ****               0 ****  **** 
    551 PS             8801 ****               0 ****  **** 
    552 PS             8817 ****               0 ****  **** 
    553 PS             8833 ****               0 ****  **** 
    554 PS             8849 ****               0 ****  **** 
    555 PS             8865 ****               0 ****  **** 
    556 PS             8881 ****               0 ****  **** 
    557 PS             8897 ****               0 ****  **** 
    558 PS             8913 ****               0 ****  **** 
    559 PS             8929 ****               0 ****  **** 
    560 PS             8945 ****               0 ****  **** 
    561 PS             8961 ****               0 ****  **** 
    562 PS             8977 ****               0 ****  **** 
    563 PS             8993 ****               0 ****  **** 
    564 PS             9009 ****               0 ****  **** 
    565 PS             9025 ****               0 ****  **** 
    566 PS             9041 ****               0 ****  **** 
    567 PS             9057 ****               0 ****  **** 
    568 PS             9073 ****               0 ****  **** 
    569 PS             9089 ****               0 ****  **** 
    570 PS             9105 ****               0 ****  **** 
    571 PS             9121 ****               0 ****  **** 
    572 PS             9137 ****               0 ****  **** 
    573 PS             9153 ****               0 ****  **** 
    574 PS             9169 ****               0 ****  **** 
    575 PS             9185 ****               0 ****  **** 
    576 PS             9201 ****               0 ****  **** 
    577 PS             9217 ****               0 ****  **** 
    578 PS             9233 ****               0 ****  **** 
    579 PS             9249 ****               0 ****  **** 
    580 PS             9265 ****               0 ****  **** 
    581 PS             9281 ****               0 ****  **** 
    582 PS             9297 ****               0 ****  **** 
    583 PS             9313 ****               0 ****  **** 
    584 PS             9329 ****               0 ****  **** 
    585 PS             9345 ****               0 ****  **** 
    586 PS             9361 ****               0 ****  **** 
    587 PS             9377 ****               0 ****  **** 
    588 PS             9393 ****               0 ****  **** 
    589 PS             9409 ****               0 ****  **** 
    590 PS             9425 ****               0 ****  **** 
    591 PS             9441 ****               0 ****  **** 
    592 PS             9457 ****               0 ****  **** 
    593 PS             9473 ****               0 ****  **** 
    594 PS             9489 ****               0 ****  **** 
    595 PS             9505 ****               0 ****  **** 
    596 PS             9521 ****               0 ****  **** 
    597 PS             9537 ****               0 ****  **** 
    598 PS             9553 ****               0 ****  **** 
    599 PS             9569 ****               0 ****  **** 
    600 PS             9585 ****               0 ****  **** 
    601 PS             9601 ****               0 ****  **** 
    602 PS             9617 ****               0 ****  **** 
    603 PS             9633 ****               0 ****  **** 
    604 PS             9649 ****               0 ****  **** 
    605 PS             9665 ****               0 ****  **** 
    606 PS             9681 ****               0 ****  **** 
    607 PS             9697 ****               0 ****  **** 
    608 PS             9713 ****               0 ****  **** 
    609 PS             9729 ****               0 ****  **** 
    610 PS             9745 ****               0 ****  **** 
    611 PS             9761 ****               0 ****  **** 
    612 PS             9777 ****               0 ****  **** 
    613 PS             9793 ****               0 ****  **** 
    614 PS             9809 ****               0 ****  **** 
    615 PS             9825 ****               0 ****  **** 
    616 PS             9841 ****               0 ****  **** 
    617 PS             9857 ****               0 ****  **** 
    618 PS             9873 ****               0 ****  **** 
    619 PS             9889 ****               0 ****  **** 
    620 PS             9905 ****               0 ****  **** 
    621 PS             9921 ****               0 ****  **** 
    622 PS             9937 ****               0 ****  **** 
    623 PS             9953 ****               0 ****  **** 
    624 PS             9969 ****               0 ****  **** 
    625 PS             9985 ****               0 ****  **** 
    626 PS            10001 ****               0 ****  **** 
    627 PS            10017 ****               0 ****  **** 
    628 PS            10033 ****               0 ****  **** 
    629 PS            10049 ****               0 ****  **** 
    630 PS            10065 ****               0 ****  **** 
    631 PS            10081 ****               0 ****  **** 
    632 PS            10097 ****               0 ****  **** 
    633 PS            10113 ****               0 ****  **** 
    634 PS            10129 ****               0 ****  **** 
    635 PS            10145 ****               0 ****  **** 
    636 PS            10161 ****               0 ****  **** 
    637 PS            10177 ****               0 ****  **** 
    638 PS            10193 ****               0 ****  **** 
    639 PS            10209 ****               0 ****  **** 
    640 PS            10225 ****               0 ****  **** 
    641 PS            10241 ****               0 ****  **** 
    642 PS            10257 ****               0 ****  **** 
    643 PS            10273 ****               0 ****  **** 
    644 PS            10289 ****               0 ****  **** 
    645 PS            10305 ****               0 ****  **** 
    646 PS            10321 ****               0 ****  **** 
    647 PS            10337 ****               0 ****  **** 
    648 PS            10353 ****               0 ****  **** 
    649 PS            10369 ****               0 ****  **** 
    650 PS            10385 ****               0 ****  **** 
    651 PS            10401 ****               0 ****  **** 
    652 PS            10417 ****               0 ****  **** 
    653 PS            10433 ****               0 ****  **** 
    654 PS            10449 ****               0 ****  **** 
    655 PS            10465 ****               0 ****  **** 
    656 PS            10481 ****               0 ****  **** 
    657 PS            10497 ****               0 ****  **** 
    658 PS            10513 ****               0 ****  **** 
    659 PS            10529 ****               0 ****  **** 
    660 PS            10545 ****               0 ****  **** 
    661 PS            10561 ****               0 ****  **** 
    662 PS            10577 ****               0 ****  **** 
    663 PS            10593 ****               0 ****  **** 
    664 PS            10609 ****               0 ****  **** 
    665 PS            10625 ****               0 ****  **** 
    666 PS            10641 ****               0 ****  **** 
    667 PS            10657 ****               0 ****  **** 
    668 PS            10673 ****               0 ****  **** 
    669 PS            10689 ****               0 ****  **** 
    670 PS            10705 ****               0 ****  **** 
    671 PS            10721 ****               0 ****  **** 
    672 PS            10737 ****               0 ****  **** 
    673 PS            10753 ****               0 ****  **** 
    674 PS            10769 ****               0 ****  **** 
    675 PS            10785 ****               0 ****  **** 
    676 PS            10801 ****               0 ****  **** 
    677 PS            10817 ****               0 ****  **** 
    678 PS            10833 ****               0 ****  **** 
    679 PS            10849 ****               0 ****  **** 
    680 PS            10865 ****               0 ****  **** 
    681 PS            10881 ****               0 ****  **** 
    682 PS            10897 ****               0 ****  **** 
    683 PS            10913 ****               0 ****  **** 
    684 PS            10929 ****               0 ****  **** 
    685 PS            10945 ****               0 ****  **** 
    686 PS            10961 ****               0 ****  **** 
    687 PS            10977 ****               0 ****  **** 
    688 PS            10993 ****               0 ****  **** 
    689 PS            11009 ****               0 ****  **** 
    690 PS            11025 ****               0 ****  **** 
    691 PS            11041 ****               0 ****  **** 
    692 PS            11057 ****               0 ****  **** 
    693 PS            11073 ****               0 ****  **** 
    694 PS            11089 ****               0 ****  **** 
    695 PS            11105 ****               0 ****  **** 
    696 PS            11121 ****               0 ****  **** 
    697 PS            11137 ****               0 ****  **** 
    698 PS            11153 ****               0 ****  **** 
    699 PS            11169 ****               0 ****  **** 
    700 PS            11185 ****               0 ****  **** 
    701 PS            11201 ****               0 ****  **** 
    702 PS            11217 ****               0 ****  **** 
    703 PS            11233 ****               0 ****  **** 
    704 PS            11249 ****               0 ****  **** 
    705 PS            11265 ****               0 ****  **** 
    706 PS            11281 ****               0 ****  **** 
    707 PS            11297 ****               0 ****  **** 
    708 PS            11313 ****               0 ****  **** 
    709 PS            11329 ****               0 ****  **** 
    710 PS            11345 ****               0 ****  **** 
    711 PS            11361 ****               0 ****  **** 
    712 PS            11377 ****               0 ****  **** 
    713 PS            11393 ****               0 ****  **** 
    714 PS            11409 ****               0 ****  **** 
    715 PS            11425 ****               0 ****  **** 
    716 PS            11441 ****               0 ****  **** 
    717 PS            11457 ****               0 ****  **** 
    718 PS            11473 ****               0 ****  **** 
    719 PS            11489 ****               0 ****  **** 
    720 PS            11505 ****               0 ****  **** 

