@<TRIPOS>MOLECULE
Cpptraj Generated mol2 file.
14940 14857  2490     0     0
SMALL
USER_CHARGES


@<TRIPOS>ATOM
      1 H11        39.9330   -9.2050    5.9430 hc         1 PE      -0.019800
      2 H12        39.7630   -7.4850    5.8230 hc         1 PE      -0.019800
      3 H21        39.7830   -9.0550    3.6330 hc         1 PE      -0.019800
      4 H22        38.5430   -7.7750    3.6330 hc         1 PE      -0.019800
      5 C1         39.2730   -8.4250    5.5330 c3         1 PE       0.039600
      6 C2         38.8630   -8.7150    4.1130 c3         1 PE       0.039600
      7 H11        37.7330   -9.9950    2.9030 hc         2 PE      -0.019800
      8 H12        38.3830  -10.7350    4.2530 hc         2 PE      -0.019800
      9 H21        36.0330   -8.6950    4.4330 hc         2 PE      -0.019800
     10 H22        36.5930   -9.6950    5.7730 hc         2 PE      -0.019800
     11 C1         37.8530   -9.8150    3.9830 c3         2 PE       0.039600
     12 C2         36.4730   -9.6650    4.6830 c3         2 PE       0.039600
     13 H11        35.1330  -10.5150    3.1130 hc         3 PE      -0.019800
     14 H12        36.0230  -11.6450    4.1230 hc         3 PE      -0.019800
     15 H21        33.9330   -9.8850    5.3130 hc         3 PE      -0.019800
     16 H22        34.3330  -11.5550    5.7430 hc         3 PE      -0.019800
     17 C1         35.4430  -10.7150    4.1430 c3         3 PE       0.039600
     18 C2         34.1030  -10.8850    4.9030 c3         3 PE       0.039600
     19 H11        32.7630  -10.8250    3.1830 hc         4 PE      -0.019800
     20 H12        33.3130  -12.4650    3.6330 hc         4 PE      -0.019800
     21 H21        31.3630  -10.5950    5.0930 hc         4 PE      -0.019800
     22 H22        31.9730  -12.1550    5.7230 hc         4 PE      -0.019800
     23 C1         32.9830  -11.4950    4.0230 c3         4 PE       0.039600
     24 C2         31.6930  -11.6050    4.8130 c3         4 PE       0.039600
     25 H11        30.6430  -12.0350    3.0330 hc         5 PE      -0.019800
     26 H12        30.9230  -13.4550    3.9830 hc         5 PE      -0.019800
     27 H21        29.0730  -11.3550    5.1930 hc         5 PE      -0.019800
     28 H22        29.4730  -13.0250    5.6030 hc         5 PE      -0.019800
     29 C1         30.6330  -12.3950    4.0730 c3         5 PE       0.039600
     30 C2         29.2530  -12.3550    4.7730 c3         5 PE       0.039600
     31 H11        27.9130  -12.2250    3.0530 hc         6 PE      -0.019800
     32 H12        28.2430  -13.8550    3.4630 hc         6 PE      -0.019800
     33 H21        26.5830  -12.1350    5.1630 hc         6 PE      -0.019800
     34 H22        27.1830  -13.8150    5.5430 hc         6 PE      -0.019800
     35 C1         28.1130  -12.8650    3.9230 c3         6 PE       0.039600
     36 C2         26.9130  -13.1050    4.7530 c3         6 PE       0.039600
     37 H11        25.6630  -13.0850    2.9430 hc         7 PE      -0.019800
     38 H12        25.9330  -14.7250    3.6330 hc         7 PE      -0.019800
     39 H21        24.1030  -12.5750    4.6830 hc         7 PE      -0.019800
     40 H22        24.4930  -14.0550    5.5730 hc         7 PE      -0.019800
     41 C1         25.7730  -13.6650    3.8630 c3         7 PE       0.039600
     42 C2         24.4030  -13.6250    4.5630 c3         7 PE       0.039600
     43 H11        23.1130  -13.5850    2.9330 hc         8 PE      -0.019800
     44 H12        23.5630  -15.2450    3.4030 hc         8 PE      -0.019800
     45 H21        21.9630  -13.2750    5.0730 hc         8 PE      -0.019800
     46 H22        22.2530  -15.0350    5.4030 hc         8 PE      -0.019800
     47 C1         23.2630  -14.2650    3.7830 c3         8 PE       0.039600
     48 C2         22.0230  -14.2850    4.6430 c3         8 PE       0.039600
     49 H11        20.6930  -14.3550    2.8230 hc         9 PE      -0.019800
     50 H12        20.7830  -15.7850    3.7730 hc         9 PE      -0.019800
     51 H21        19.2530  -13.2150    4.6230 hc         9 PE      -0.019800
     52 H22        19.3630  -14.7050    5.7130 hc         9 PE      -0.019800
     53 C1         20.7230  -14.6950    3.8630 c3         9 PE       0.039600
     54 C2         19.3530  -14.3050    4.6830 c3         9 PE       0.039600
     55 H11        18.0630  -14.3950    2.9530 hc        10 PE      -0.019800
     56 H12        18.3630  -16.0050    3.6830 hc        10 PE      -0.019800
     57 H21        16.4730  -13.8150    4.7730 hc        10 PE      -0.019800
     58 H22        16.9430  -15.3450    5.6130 hc        10 PE      -0.019800
     59 C1         18.1130  -14.9550    3.8930 c3        10 PE       0.039600
     60 C2         16.7330  -14.8750    4.6430 c3        10 PE       0.039600
     61 H11        15.3030  -14.7650    2.8630 hc        11 PE      -0.019800
     62 H12        15.7330  -16.3850    3.4230 hc        11 PE      -0.019800
     63 H21        13.9330  -14.3750    4.9330 hc        11 PE      -0.019800
     64 H22        14.2530  -16.0650    5.4130 hc        11 PE      -0.019800
     65 C1         15.5030  -15.3650    3.7630 c3        11 PE       0.039600
     66 C2         14.1630  -15.3850    4.5630 c3        11 PE       0.039600
     67 H11        12.7530  -15.4250    2.8630 hc        12 PE      -0.019800
     68 H12        13.1930  -16.9250    3.4930 hc        12 PE      -0.019800
     69 H21        11.4630  -14.7550    4.7230 hc        12 PE      -0.019800
     70 H22        11.6830  -16.3450    5.6030 hc        12 PE      -0.019800
     71 C1         12.9330  -15.9150    3.8230 c3        12 PE       0.039600
     72 C2         11.6130  -15.8450    4.6330 c3        12 PE       0.039600
     73 H11        10.4630  -16.0650    2.8030 hc        13 PE      -0.019800
     74 H12        10.6330  -17.6450    3.6330 hc        13 PE      -0.019800
     75 H21         8.9230  -15.2950    4.7230 hc        13 PE      -0.019800
     76 H22         9.3130  -16.8750    5.5130 hc        13 PE      -0.019800
     77 C1         10.4630  -16.5750    3.7730 c3        13 PE       0.039600
     78 C2          9.1430  -16.3550    4.5630 c3        13 PE       0.039600
     79 H11         7.9630  -16.8550    2.7530 hc        14 PE      -0.019800
     80 H12         7.9230  -18.1750    4.0130 hc        14 PE      -0.019800
     81 H21         6.4130  -15.5350    4.2830 hc        14 PE      -0.019800
     82 H22         6.8030  -16.6950    5.5230 hc        14 PE      -0.019800
     83 C1          7.9530  -17.0950    3.8230 c3        14 PE       0.039600
     84 C2          6.6230  -16.6050    4.4430 c3        14 PE       0.039600
     85 H11         5.4430  -17.3050    2.7730 hc        15 PE      -0.019800
     86 H12         5.4430  -18.4050    4.1530 hc        15 PE      -0.019800
     87 H21         3.9730  -15.6450    4.0530 hc        15 PE      -0.019800
     88 H22         4.0330  -16.5550    5.5230 hc        15 PE      -0.019800
     89 C1          5.3630  -17.3450    3.8630 c3        15 PE       0.039600
     90 C2          4.0230  -16.6650    4.4330 c3        15 PE       0.039600
     91 H11         2.5830  -17.5050    2.9730 hc        16 PE      -0.019800
     92 H12         2.8730  -18.4050    4.4330 hc        16 PE      -0.019800
     93 H21         1.3730  -15.8450    4.8230 hc        16 PE      -0.019800
     94 H22         1.3530  -17.2150    5.8330 hc        16 PE      -0.019800
     95 C1          2.7430  -17.3850    4.0530 c3        16 PE       0.039600
     96 C2          1.4030  -16.9450    4.7730 c3        16 PE       0.039600
     97 H11        -0.6970  -16.8850    4.6630 hc        17 PE      -0.019800
     98 H12         0.1330  -16.8850    3.1130 hc        17 PE      -0.019800
     99 H21         0.1030  -19.2350    5.1730 hc        17 PE      -0.019800
    100 H22         0.6130  -19.3550    3.4830 hc        17 PE      -0.019800
    101 C1          0.1330  -17.3450    4.1030 c3        17 PE       0.039600
    102 C2         -0.1170  -18.8850    4.1630 c3        17 PE       0.039600
    103 H11        -2.3170  -18.7950    4.4930 hc        18 PE      -0.019800
    104 H12        -1.8170  -19.2050    2.8030 hc        18 PE      -0.019800
    105 H21        -1.6270  -21.1250    5.0530 hc        18 PE      -0.019800
    106 H22        -1.0970  -21.4850    3.3930 hc        18 PE      -0.019800
    107 C1         -1.5870  -19.3150    3.8730 c3        18 PE       0.039600
    108 C2         -1.7370  -20.8450    4.0030 c3        18 PE       0.039600
    109 H11        -3.8970  -20.4850    4.3830 hc        19 PE      -0.019800
    110 H12        -3.4670  -20.9150    2.6930 hc        19 PE      -0.019800
    111 H21        -3.0370  -23.1350    4.5830 hc        19 PE      -0.019800
    112 H22        -3.9470  -23.0550    3.0630 hc        19 PE      -0.019800
    113 C1         -3.2770  -21.1350    3.7530 c3        19 PE       0.039600
    114 C2         -3.7570  -22.5450    4.0130 c3        19 PE       0.039600
    115 H11        -5.0370  -23.6650    5.1030 hc        20 PE      -0.019800
    116 H12        -4.9070  -21.9750    5.7230 hc        20 PE      -0.019800
    117 H21        -6.2770  -22.9850    3.1530 hc        20 PE      -0.019800
    118 H22        -6.1570  -21.2450    3.6330 hc        20 PE      -0.019800
    119 C1         -4.9670  -22.6050    4.8230 c3        20 PE       0.039600
    120 C2         -6.1970  -22.2850    3.9930 c3        20 PE       0.039600
    121 H11        -7.5470  -23.4050    5.3530 hc        21 PE      -0.019800
    122 H12        -7.2970  -21.8750    5.7930 hc        21 PE      -0.019800
    123 H21        -8.8570  -22.4750    3.1430 hc        21 PE      -0.019800
    124 H22        -8.8670  -20.9850    4.0030 hc        21 PE      -0.019800
    125 C1         -7.4970  -22.4250    4.8630 c3        21 PE       0.039600
    126 C2         -8.8670  -22.0650    4.1530 c3        21 PE       0.039600
    127 H11       -10.1070  -23.6150    4.8930 hc        22 PE      -0.019800
    128 H12       -10.0670  -22.1550    5.9630 hc        22 PE      -0.019800
    129 H21       -11.3770  -22.5950    3.1930 hc        22 PE      -0.019800
    130 H22       -11.2470  -21.0050    3.9530 hc        22 PE      -0.019800
    131 C1        -10.1270  -22.5150    4.9230 c3        22 PE       0.039600
    132 C2        -11.4070  -22.0750    4.1630 c3        22 PE       0.039600
    133 H11       -12.9970  -23.5150    5.0330 hc        23 PE      -0.019800
    134 H12       -12.7070  -22.0650    5.9030 hc        23 PE      -0.019800
    135 H21       -14.1470  -22.3850    3.2630 hc        23 PE      -0.019800
    136 H22       -13.9070  -20.7750    3.9830 hc        23 PE      -0.019800
    137 C1        -12.7670  -22.4550    4.8730 c3        23 PE       0.039600
    138 C2        -13.9770  -21.8450    4.2030 c3        23 PE       0.039600
    139 H11       -15.7970  -23.1050    4.4030 hc        24 PE      -0.019800
    140 H12       -15.2170  -22.5250    5.9030 hc        24 PE      -0.019800
    141 H21       -16.6470  -20.6650    3.8330 hc        24 PE      -0.019800
    142 H22       -16.1170  -20.2350    5.4130 hc        24 PE      -0.019800
    143 C1        -15.3370  -22.2150    4.8530 c3        24 PE       0.039600
    144 C2        -16.4370  -21.0950    4.8230 c3        24 PE       0.039600
    145 H11       -18.3370  -22.1850    4.9030 hc        25 PE      -0.019800
    146 H12       -17.4270  -22.3050    6.3930 hc        25 PE      -0.019800
    147 H21       -18.7570  -19.6150    5.4830 hc        25 PE      -0.019800
    148 H22       -17.8570  -19.9150    7.0430 hc        25 PE      -0.019800
    149 C1        -17.7570  -21.5950    5.6230 c3        25 PE       0.039600
    150 C2        -18.4970  -20.3350    6.2630 c3        25 PE       0.039600
    151 H11       -20.4070  -21.4650    6.0630 hc        26 PE      -0.019800
    152 H12       -19.6970  -21.5250    7.6230 hc        26 PE      -0.019800
    153 H21       -21.0270  -18.9750    6.4030 hc        26 PE      -0.019800
    154 H22       -20.1370  -18.9350    7.9130 hc        26 PE      -0.019800
    155 C1        -19.9070  -20.8250    6.8030 c3        26 PE       0.039600
    156 C2        -20.7470  -19.5850    7.2630 c3        26 PE       0.039600
    157 H11       -22.6370  -20.6350    7.4130 hc        27 PE      -0.019800
    158 H12       -21.8570  -20.4750    8.9330 hc        27 PE      -0.019800
    159 H21       -22.5670  -18.0350    9.2130 hc        27 PE      -0.019800
    160 H22       -23.7770  -19.2950    9.2330 hc        27 PE      -0.019800
    161 C1        -22.0770  -19.9150    8.0230 c3        27 PE       0.039600
    162 C2        -23.0370  -18.8050    8.5930 c3        27 PE       0.039600
    163 H11       -23.1470  -17.6750    6.6830 hc        28 PE      -0.019800
    164 H12       -24.2670  -19.0150    6.7730 hc        28 PE      -0.019800
    165 H21       -24.5370  -16.2050    7.9230 hc        28 PE      -0.019800
    166 H22       -25.2570  -17.4650    8.8230 hc        28 PE      -0.019800
    167 C1        -23.8170  -18.2050    7.3630 c3        28 PE       0.039600
    168 C2        -24.8870  -17.2450    7.8130 c3        28 PE       0.039600
    169 H11       -25.6270  -16.8450    5.8730 hc        29 PE      -0.019800
    170 H12       -26.3770  -18.2550    6.5730 hc        29 PE      -0.019800
    171 H21       -26.6970  -15.3450    7.1930 hc        29 PE      -0.019800
    172 H22       -27.4970  -16.6350    8.2130 hc        29 PE      -0.019800
    173 C1        -26.0870  -17.2150    6.7930 c3        29 PE       0.039600
    174 C2        -27.1870  -16.3250    7.2130 c3        29 PE       0.039600
    175 H11       -27.9670  -16.2150    5.1630 hc        30 PE      -0.019800
    176 H12       -28.6270  -17.4750    6.1030 hc        30 PE      -0.019800
    177 H21       -30.1070  -15.9250    7.3530 hc        30 PE      -0.019800
    178 H22       -30.1970  -15.5950    5.6130 hc        30 PE      -0.019800
    179 C1        -28.3070  -16.4250    6.1830 c3        30 PE       0.039600
    180 C2        -29.5270  -15.5950    6.4830 c3        30 PE       0.039600
    181 H11       -32.6070   -7.8950    8.9030 hc        31 PE      -0.019800
    182 H12       -33.8470   -6.7650    8.9030 hc        31 PE      -0.019800
    183 H21       -33.9970   -9.1750    7.4530 hc        31 PE      -0.019800
    184 H22       -35.2470   -7.9450    7.7430 hc        31 PE      -0.019800
    185 C1        -33.6670   -7.8150    9.1730 c3        31 PE       0.039600
    186 C2        -34.5870   -8.6750    8.2330 c3        31 PE       0.039600
    187 H11       -34.8770  -10.1750    9.7430 hc        32 PE      -0.019800
    188 H12       -36.0370   -8.8650    9.7430 hc        32 PE      -0.019800
    189 H21       -35.7970  -10.9450    7.4030 hc        32 PE      -0.019800
    190 H22       -37.2270  -10.0050    7.8230 hc        32 PE      -0.019800
    191 C1        -35.5470   -9.5950    9.0930 c3        32 PE       0.039600
    192 C2        -36.3770  -10.5450    8.2430 c3        32 PE       0.039600
    193 H11       -36.0870  -12.3850    9.4630 hc        33 PE      -0.019800
    194 H12       -37.4270  -11.4050   10.0730 hc        33 PE      -0.019800
    195 H21       -37.4470  -12.8450    7.3430 hc        33 PE      -0.019800
    196 H22       -38.7970  -12.0250    8.1430 hc        33 PE      -0.019800
    197 C1        -36.9470  -11.7750    9.1530 c3        33 PE       0.039600
    198 C2        -37.8870  -12.6150    8.3230 c3        33 PE       0.039600
    199 H11       -37.4870  -14.2850    9.6930 hc        34 PE      -0.019800
    200 H12       -39.0670  -13.7850    9.8330 hc        34 PE      -0.019800
    201 H21       -37.8770  -15.2650    7.4330 hc        34 PE      -0.019800
    202 H22       -39.6070  -14.7150    7.4330 hc        34 PE      -0.019800
    203 C1        -38.3070  -13.9550    9.0530 c3        34 PE       0.039600
    204 C2        -38.7570  -15.0350    8.0430 c3        34 PE       0.039600
    205 H11       -38.4070  -16.5550    9.4630 hc        35 PE      -0.019800
    206 H12       -40.1070  -16.3450    9.2230 hc        35 PE      -0.019800
    207 H21       -38.1770  -17.5450    7.1230 hc        35 PE      -0.019800
    208 H22       -39.8070  -17.1350    6.8130 hc        35 PE      -0.019800
    209 C1        -39.1470  -16.3350    8.6830 c3        35 PE       0.039600
    210 C2        -39.1470  -17.4650    7.6230 c3        35 PE       0.039600
    211 H11       -40.3170  -18.7550    8.9830 hc        36 PE      -0.019800
    212 H12       -40.2170  -19.2650    7.2830 hc        36 PE      -0.019800
    213 H21       -37.9170  -19.1550    9.2130 hc        36 PE      -0.019800
    214 H22       -37.9070  -19.8750    7.6230 hc        36 PE      -0.019800
    215 C1        -39.6470  -18.8250    8.1130 c3        36 PE       0.039600
    216 C2        -38.5070  -19.7750    8.5230 c3        36 PE       0.039600
    217 H11       -39.3970  -20.8950   10.1130 hc        37 PE      -0.019800
    218 H12       -39.8770  -21.5350    8.4330 hc        37 PE      -0.019800
    219 H21       -37.2170  -21.9550    9.7330 hc        37 PE      -0.019800
    220 H22       -37.6770  -22.3650    8.0130 hc        37 PE      -0.019800
    221 C1        -39.0870  -21.1450    9.0830 c3        37 PE       0.039600
    222 C2        -38.0170  -22.2350    9.0430 c3        37 PE       0.039600
    223 H11       -38.6270  -23.7850   10.6530 hc        38 PE      -0.019800
    224 H12       -39.5170  -23.8550    9.1830 hc        38 PE      -0.019800
    225 H21       -36.5870  -24.5050    9.3230 hc        38 PE      -0.019800
    226 H22       -37.6570  -24.7950    7.9330 hc        38 PE      -0.019800
    227 C1        -38.5170  -23.6250    9.5730 c3        38 PE       0.039600
    228 C2        -37.5970  -24.8050    9.0330 c3        38 PE       0.039600
    229 H11       -37.3570  -26.4550   10.5130 hc        39 PE      -0.019800
    230 H12       -38.9870  -26.3150    9.7830 hc        39 PE      -0.019800
    231 H21       -36.9270  -26.7750    7.8130 hc        39 PE      -0.019800
    232 H22       -38.3970  -27.6950    8.0730 hc        39 PE      -0.019800
    233 C1        -37.9170  -26.2450    9.5830 c3        39 PE       0.039600
    234 C2        -37.4970  -27.3150    8.5830 c3        39 PE       0.039600
    235 H11       -35.7270  -28.1250    9.5930 hc        40 PE      -0.019800
    236 H12       -37.1970  -29.0650    9.8830 hc        40 PE      -0.019800
    237 H21       -35.7870  -28.8150    7.1930 hc        40 PE      -0.019800
    238 H22       -36.9270  -30.1350    7.6930 hc        40 PE      -0.019800
    239 C1        -36.6470  -28.5050    9.1230 c3        40 PE       0.039600
    240 C2        -36.1170  -29.4650    8.0130 c3        40 PE       0.039600
    241 H11       -35.3470  -30.8250    9.4430 hc        41 PE      -0.019800
    242 H12       -35.0870  -31.2350    7.8030 hc        41 PE      -0.019800
    243 H21       -33.2870  -29.2550    9.4330 hc        41 PE      -0.019800
    244 H22       -33.2970  -29.3550    7.6230 hc        41 PE      -0.019800
    245 C1        -35.0570  -30.3750    8.4930 c3        41 PE       0.039600
    246 C2        -33.5270  -29.8750    8.5630 c3        41 PE       0.039600
    247 H11       -32.8670  -31.8250    9.2730 hc        42 PE      -0.019800
    248 H12       -32.6270  -31.6650    7.5130 hc        42 PE      -0.019800
    249 H21       -30.8670  -30.0850    9.5530 hc        42 PE      -0.019800
    250 H22       -30.7770  -30.0150    7.9130 hc        42 PE      -0.019800
    251 C1        -32.5370  -31.1350    8.4730 c3        42 PE       0.039600
    252 C2        -31.0670  -30.7350    8.6930 c3        42 PE       0.039600
    253 H11       -30.1170  -32.5650    9.3230 hc        43 PE      -0.019800
    254 H12       -30.1170  -32.2550    7.5530 hc        43 PE      -0.019800
    255 H21       -28.3670  -30.9250    9.7430 hc        43 PE      -0.019800
    256 H22       -28.4670  -30.4550    7.9830 hc        43 PE      -0.019800
    257 C1        -29.9970  -31.8050    8.5530 c3        43 PE       0.039600
    258 C2        -28.5070  -31.2750    8.7130 c3        43 PE       0.039600
    259 H11       -27.6470  -33.3650    8.7030 hc        44 PE      -0.019800
    260 H12       -27.4770  -32.4650    7.1930 hc        44 PE      -0.019800
    261 H21       -25.8270  -31.5050    9.5930 hc        44 PE      -0.019800
    262 H22       -25.7370  -30.9750    7.9130 hc        44 PE      -0.019800
    263 C1        -27.4870  -32.3650    8.2830 c3        44 PE       0.039600
    264 C2        -26.0070  -31.8150    8.5630 c3        44 PE       0.039600
    265 H11       -25.0270  -33.6750    8.9830 hc        45 PE      -0.019800
    266 H12       -25.2170  -33.3950    7.2530 hc        45 PE      -0.019800
    267 H21       -23.3570  -31.9550    9.1930 hc        45 PE      -0.019800
    268 H22       -23.4170  -31.5250    7.4330 hc        45 PE      -0.019800
    269 C1        -24.9870  -32.9050    8.2030 c3        45 PE       0.039600
    270 C2        -23.5070  -32.3250    8.1730 c3        45 PE       0.039600
    271 H11       -22.6870  -34.3050    8.7430 hc        46 PE      -0.019800
    272 H12       -22.6170  -33.9450    7.0030 hc        46 PE      -0.019800
    273 H21       -21.0170  -32.4350    9.0930 hc        46 PE      -0.019800
    274 H22       -20.8870  -32.4050    7.3130 hc        46 PE      -0.019800
    275 C1        -22.4670  -33.5150    8.0030 c3        46 PE       0.039600
    276 C2        -21.0270  -33.0550    8.1930 c3        46 PE       0.039600
    277 H11       -20.0070  -34.9050    9.1130 hc        47 PE      -0.019800
    278 H12       -19.9970  -34.7350    7.3030 hc        47 PE      -0.019800
    279 H21       -18.4070  -32.6450    8.6030 hc        47 PE      -0.019800
    280 H22       -18.4570  -33.4950    7.0030 hc        47 PE      -0.019800
    281 C1        -19.9670  -34.2050    8.2630 c3        47 PE       0.039600
    282 C2        -18.5270  -33.6050    8.0830 c3        47 PE       0.039600
    283 H11       -17.6270  -34.6250    9.7330 hc        48 PE      -0.019800
    284 H12       -17.3470  -35.4450    8.1530 hc        48 PE      -0.019800
    285 H21       -16.1670  -32.8350    9.2730 hc        48 PE      -0.019800
    286 H22       -15.8870  -33.2450    7.6530 hc        48 PE      -0.019800
    287 C1        -17.3670  -34.4750    8.6730 c3        48 PE       0.039600
    288 C2        -16.0170  -33.7150    8.6330 c3        48 PE       0.039600
    289 H11       -14.9070  -35.2650    9.8430 hc        49 PE      -0.019800
    290 H12       -14.7670  -35.3650    8.1530 hc        49 PE      -0.019800
    291 H21       -13.5470  -33.0450    9.5630 hc        49 PE      -0.019800
    292 H22       -13.3970  -33.4150    7.8330 hc        49 PE      -0.019800
    293 C1        -14.7870  -34.6250    8.9630 c3        49 PE       0.039600
    294 C2        -13.4270  -33.8550    8.8330 c3        49 PE       0.039600
    295 H11       -12.1470  -35.1650    9.9830 hc        50 PE      -0.019800
    296 H12       -11.9870  -35.3550    8.2130 hc        50 PE      -0.019800
    297 H21       -10.8770  -32.8350    9.5730 hc        50 PE      -0.019800
    298 H22       -10.8270  -33.3250    7.8530 hc        50 PE      -0.019800
    299 C1        -12.0970  -34.6250    9.0230 c3        50 PE       0.039600
    300 C2        -10.8770  -33.6850    8.8830 c3        50 PE       0.039600
    301 H11        -9.4070  -34.7750   10.0730 hc        51 PE      -0.019800
    302 H12        -9.5570  -35.4150    8.4430 hc        51 PE      -0.019800
    303 H21        -8.3570  -32.7750    9.4030 hc        51 PE      -0.019800
    304 H22        -8.5470  -33.1850    7.6330 hc        51 PE      -0.019800
    305 C1         -9.5570  -34.4850    9.0230 c3        51 PE       0.039600
    306 C2         -8.4270  -33.5750    8.6530 c3        51 PE       0.039600
    307 H11        -7.0270  -34.8050    9.6730 hc        52 PE      -0.019800
    308 H12        -6.9670  -35.0050    7.9130 hc        52 PE      -0.019800
    309 H21        -5.8470  -32.5650    9.3730 hc        52 PE      -0.019800
    310 H22        -5.7970  -32.8150    7.6130 hc        52 PE      -0.019800
    311 C1         -7.0370  -34.2550    8.7130 c3        52 PE       0.039600
    312 C2         -5.8270  -33.3250    8.5830 c3        52 PE       0.039600
    313 H11        -4.4870  -34.6350    9.6630 hc        53 PE      -0.019800
    314 H12        -4.5170  -34.7250    7.9030 hc        53 PE      -0.019800
    315 H21        -3.3770  -32.3550    9.4030 hc        53 PE      -0.019800
    316 H22        -3.3970  -32.5250    7.7030 hc        53 PE      -0.019800
    317 C1         -4.5070  -34.0350    8.7430 c3        53 PE       0.039600
    318 C2         -3.2570  -33.1150    8.6230 c3        53 PE       0.039600
    319 H11        -1.8870  -34.5250    9.6530 hc        54 PE      -0.019800
    320 H12        -1.6070  -34.4250    7.8930 hc        54 PE      -0.019800
    321 H21        -0.8670  -32.2650    9.9030 hc        54 PE      -0.019800
    322 H22        -0.9070  -32.1150    8.1430 hc        54 PE      -0.019800
    323 C1         -1.8670  -33.8550    8.7830 c3        54 PE       0.039600
    324 C2         -0.7670  -32.8250    8.9630 c3        54 PE       0.039600
    325 H11         0.7730  -34.1450    9.7230 hc        55 PE      -0.019800
    326 H12         0.5630  -34.2450    7.9730 hc        55 PE      -0.019800
    327 H21         1.7430  -31.8050    9.3930 hc        55 PE      -0.019800
    328 H22         1.6730  -31.9650    7.6730 hc        55 PE      -0.019800
    329 C1          0.5830  -33.5550    8.8230 c3        55 PE       0.039600
    330 C2          1.7330  -32.5650    8.5930 c3        55 PE       0.039600
    331 H11         3.2630  -33.7950    9.6430 hc        56 PE      -0.019800
    332 H12         3.2530  -34.0350    7.9330 hc        56 PE      -0.019800
    333 H21         4.0630  -31.4350    9.1530 hc        56 PE      -0.019800
    334 H22         4.2930  -31.9350    7.4830 hc        56 PE      -0.019800
    335 C1          3.1030  -33.2650    8.6930 c3        56 PE       0.039600
    336 C2          4.2830  -32.3050    8.5230 c3        56 PE       0.039600
    337 H11         5.5230  -33.0450   10.1430 hc        57 PE      -0.019800
    338 H12         5.7230  -33.8850    8.6130 hc        57 PE      -0.019800
    339 H21         6.6030  -31.1450    9.3730 hc        57 PE      -0.019800
    340 H22         6.6430  -31.7350    7.7030 hc        57 PE      -0.019800
    341 C1          5.5830  -32.8950    9.0530 c3        57 PE       0.039600
    342 C2          6.7430  -32.0450    8.7530 c3        57 PE       0.039600
    343 H11         8.1530  -33.1550    9.8830 hc        58 PE      -0.019800
    344 H12         8.1930  -33.3850    8.1330 hc        58 PE      -0.019800
    345 H21         8.9730  -30.9350    9.7630 hc        58 PE      -0.019800
    346 H22         9.1430  -31.0150    8.0030 hc        58 PE      -0.019800
    347 C1          8.0930  -32.6250    8.9230 c3        58 PE       0.039600
    348 C2          9.2230  -31.6050    8.9330 c3        58 PE       0.039600
    349 H11        10.8630  -32.5550   10.0530 hc        59 PE      -0.019800
    350 H12        10.8130  -32.9550    8.3030 hc        59 PE      -0.019800
    351 H21        11.6430  -30.1450    9.1830 hc        59 PE      -0.019800
    352 H22        11.7530  -30.9550    7.6530 hc        59 PE      -0.019800
    353 C1         10.6530  -32.1650    9.0530 c3        59 PE       0.039600
    354 C2         11.7630  -31.1450    8.7430 c3        59 PE       0.039600
    355 H11        13.1430  -32.0650   10.1330 hc        60 PE      -0.019800
    356 H12        13.4130  -32.6650    8.5230 hc        60 PE      -0.019800
    357 H21        14.4730  -30.4650    7.8730 hc        60 PE      -0.019800
    358 H22        14.0430  -29.7150    9.3830 hc        60 PE      -0.019800
    359 C1         13.1630  -31.7650    9.0830 c3        60 PE       0.039600
    360 C2         14.2530  -30.6850    8.9330 c3        60 PE       0.039600
    361 H11        -4.1470   -3.6050   -8.7170 hc        61 PE      -0.019800
    362 H12        -2.9470   -4.7250   -9.1270 hc        61 PE      -0.019800
    363 H21        -1.3870   -3.7950   -7.4770 hc        61 PE      -0.019800
    364 H22        -2.6270   -2.7250   -6.7870 hc        61 PE      -0.019800
    365 C1         -3.3070   -4.1450   -8.2670 c3        61 PE       0.039600
    366 C2         -2.2870   -3.2050   -7.7170 c3        61 PE       0.039600
    367 H11        -1.6070   -2.7050   -9.6270 hc        62 PE      -0.019800
    368 H12        -2.8770   -1.6250   -8.9670 hc        62 PE      -0.019800
    369 H21         0.0030   -1.3250   -8.0870 hc        62 PE      -0.019800
    370 H22        -1.4270   -0.8850   -7.1170 hc        62 PE      -0.019800
    371 C1         -1.9370   -2.1450   -8.7470 c3        62 PE       0.039600
    372 C2         -1.0470   -1.0150   -8.1370 c3        62 PE       0.039600
    373 H11        -1.0270    0.2750   -9.8870 hc        63 PE      -0.019800
    374 H12        -2.2870    0.6550   -8.6370 hc        63 PE      -0.019800
    375 H21        -0.3870    1.4450   -7.1370 hc        63 PE      -0.019800
    376 H22        -0.7870    2.4250   -8.6070 hc        63 PE      -0.019800
    377 C1         -1.2370    0.3750   -8.8070 c3        63 PE       0.039600
    378 C2         -0.3670    1.4850   -8.2370 c3        63 PE       0.039600
    379 H11         1.5730    0.6550   -8.1070 hc        64 PE      -0.019800
    380 H12         1.0130    1.2250   -9.7970 hc        64 PE      -0.019800
    381 H21         2.1830    2.4850   -7.2870 hc        64 PE      -0.019800
    382 H22         1.2830    3.5850   -8.3570 hc        64 PE      -0.019800
    383 C1          1.0730    1.4150   -8.7170 c3        64 PE       0.039600
    384 C2          1.8630    2.6450   -8.3170 c3        64 PE       0.039600
    385 H11         3.6930    1.8650   -9.3970 hc        65 PE      -0.019800
    386 H12         2.9130    3.3450  -10.0270 hc        65 PE      -0.019800
    387 H21         4.5530    3.2350   -7.4070 hc        65 PE      -0.019800
    388 H22         3.9330    4.6450   -8.0870 hc        65 PE      -0.019800
    389 C1          3.1930    2.8050   -9.1170 c3        65 PE       0.039600
    390 C2          4.3130    3.6650   -8.3870 c3        65 PE       0.039600
    391 H11         5.9530    2.7450   -9.5670 hc        66 PE      -0.019800
    392 H12         5.4730    4.4250  -10.0570 hc        66 PE      -0.019800
    393 H21         6.9430    3.6750   -7.4570 hc        66 PE      -0.019800
    394 H22         6.4630    5.3250   -7.9170 hc        66 PE      -0.019800
    395 C1          5.6530    3.7350   -9.2270 c3        66 PE       0.039600
    396 C2          6.7530    4.3450   -8.3070 c3        66 PE       0.039600
    397 H11         8.2430    3.5450   -9.6870 hc        67 PE      -0.019800
    398 H12         7.8130    5.2450   -9.9070 hc        67 PE      -0.019800
    399 H21         9.2730    4.1550   -7.5070 hc        67 PE      -0.019800
    400 H22         9.1930    5.8750   -7.8470 hc        67 PE      -0.019800
    401 C1          8.0630    4.4950   -9.1570 c3        67 PE       0.039600
    402 C2          9.3030    4.8850   -8.3170 c3        67 PE       0.039600
    403 H11        10.7230    3.7750   -9.4970 hc        68 PE      -0.019800
    404 H12        10.5030    5.3650  -10.0470 hc        68 PE      -0.019800
    405 H21        11.8530    4.7450   -7.3470 hc        68 PE      -0.019800
    406 H22        11.7730    6.3350   -8.1370 hc        68 PE      -0.019800
    407 C1         10.6430    4.7950   -9.1170 c3        68 PE       0.039600
    408 C2         11.8530    5.2550   -8.3170 c3        68 PE       0.039600
    409 H11        13.2630    4.2350   -9.6570 hc        69 PE      -0.019800
    410 H12        13.1330    5.9950   -9.8870 hc        69 PE      -0.019800
    411 H21        14.6230    4.5350   -7.6970 hc        69 PE      -0.019800
    412 H22        14.2430    6.3350   -7.6470 hc        69 PE      -0.019800
    413 C1         13.2130    5.1950   -9.1270 c3        69 PE       0.039600
    414 C2         14.3930    5.4450   -8.2670 c3        69 PE       0.039600
    415 H11        16.0930    4.8750   -9.5970 hc        70 PE      -0.019800
    416 H12        15.5930    6.5650   -9.7170 hc        70 PE      -0.019800
    417 H21        17.0530    5.5650   -7.2870 hc        70 PE      -0.019800
    418 H22        16.7130    7.2050   -7.6370 hc        70 PE      -0.019800
    419 C1         15.7230    5.7350   -9.0170 c3        70 PE       0.039600
    420 C2         16.9330    6.2550   -8.1270 c3        70 PE       0.039600
    421 H11        18.5730    5.5350   -9.3670 hc        71 PE      -0.019800
    422 H12        18.1030    7.1950   -9.5070 hc        71 PE      -0.019800
    423 H21        19.6430    5.8950   -7.2570 hc        71 PE      -0.019800
    424 H22        19.0730    7.5250   -7.1970 hc        71 PE      -0.019800
    425 C1         18.2730    6.4050   -8.7670 c3        71 PE       0.039600
    426 C2         19.4530    6.7750   -7.8970 c3        71 PE       0.039600
    427 H11        20.8330    6.3250   -9.4170 hc        72 PE      -0.019800
    428 H12        20.4930    8.0350   -9.2670 hc        72 PE      -0.019800
    429 H21        22.2730    6.4550   -7.2370 hc        72 PE      -0.019800
    430 H22        21.9730    8.1350   -7.0770 hc        72 PE      -0.019800
    431 C1         20.7030    7.1350   -8.6870 c3        72 PE       0.039600
    432 C2         22.0630    7.3550   -7.8370 c3        72 PE       0.039600
    433 H11        23.2830    6.8950   -9.5570 hc        73 PE      -0.019800
    434 H12        23.2130    8.6150   -9.2570 hc        73 PE      -0.019800
    435 H21        24.7930    6.6150   -7.6870 hc        73 PE      -0.019800
    436 H22        24.4330    8.2650   -7.1370 hc        73 PE      -0.019800
    437 C1         23.2230    7.6450   -8.7570 c3        73 PE       0.039600
    438 C2         24.5730    7.6350   -8.0270 c3        73 PE       0.039600
    439 H11        25.9430    7.4650   -9.6770 hc        74 PE      -0.019800
    440 H12        25.4830    9.1750   -9.4670 hc        74 PE      -0.019800
    441 H21        27.2730    7.6150   -7.6470 hc        74 PE      -0.019800
    442 H22        26.8130    9.2250   -7.2870 hc        74 PE      -0.019800
    443 C1         25.7330    8.2450   -8.9370 c3        74 PE       0.039600
    444 C2         26.9630    8.5450   -8.1370 c3        74 PE       0.039600
    445 H11        28.4530    8.4750   -9.8070 hc        75 PE      -0.019800
    446 H12        27.7430   10.1050   -9.5070 hc        75 PE      -0.019800
    447 H21        29.6930    8.6850   -7.6170 hc        75 PE      -0.019800
    448 H22        28.7930   10.1450   -7.2370 hc        75 PE      -0.019800
    449 C1         28.1130    9.1850   -9.0370 c3        75 PE       0.039600
    450 C2         29.2630    9.5950   -8.0670 c3        75 PE       0.039600
    451 H11        30.8730    9.8950   -9.4070 hc        76 PE      -0.019800
    452 H12        29.9030   11.2750   -9.1570 hc        76 PE      -0.019800
    453 H21        31.5330   10.2150   -6.7570 hc        76 PE      -0.019800
    454 H22        30.8430   11.8150   -6.9270 hc        76 PE      -0.019800
    455 C1         30.3730   10.4550   -8.6170 c3        76 PE       0.039600
    456 C2         31.3230   11.0050   -7.4870 c3        76 PE       0.039600
    457 H11        33.1130   10.8650   -8.6370 hc        77 PE      -0.019800
    458 H12        32.4230   12.4850   -8.7770 hc        77 PE      -0.019800
    459 H21        34.5030   12.3150   -7.2970 hc        77 PE      -0.019800
    460 H22        33.5430   11.3250   -6.1970 hc        77 PE      -0.019800
    461 C1         32.6030   11.6550   -8.0870 c3        77 PE       0.039600
    462 C2         33.4830   12.1450   -6.9270 c3        77 PE       0.039600
    463 H11        32.9030   14.2950   -6.9470 hc        78 PE      -0.019800
    464 H12        32.1330   13.3350   -5.7670 hc        78 PE      -0.019800
    465 H21        35.1030   14.3250   -5.6370 hc        78 PE      -0.019800
    466 H22        34.4230   13.1550   -4.5970 hc        78 PE      -0.019800
    467 C1         33.1130   13.4750   -6.2470 c3        78 PE       0.039600
    468 C2         34.1430   14.0250   -5.2070 c3        78 PE       0.039600
    469 H11        32.9330   14.6750   -3.5170 hc        79 PE      -0.019800
    470 H12        34.2230   15.8050   -3.8470 hc        79 PE      -0.019800
    471 H21        31.5130   15.2650   -5.1870 hc        79 PE      -0.019800
    472 H22        32.6530   16.3550   -5.8670 hc        79 PE      -0.019800
    473 C1         33.4830   15.1550   -4.3370 c3        79 PE       0.039600
    474 C2         32.3030   15.9750   -4.8970 c3        79 PE       0.039600
    475 H11        31.2730   16.6550   -3.0970 hc        80 PE      -0.019800
    476 H12        32.5830   17.6950   -3.8170 hc        80 PE      -0.019800
    477 H21        29.8630   17.3650   -5.1070 hc        80 PE      -0.019800
    478 H22        31.1330   18.4650   -5.5770 hc        80 PE      -0.019800
    479 C1         31.6930   17.0950   -4.0170 c3        80 PE       0.039600
    480 C2         30.6830   17.9650   -4.7070 c3        80 PE       0.039600
    481 H11        29.5030   18.5050   -2.8770 hc        81 PE      -0.019800
    482 H12        30.8330   19.5950   -3.3970 hc        81 PE      -0.019800
    483 H21        28.1530   19.4750   -4.9170 hc        81 PE      -0.019800
    484 H22        29.6030   20.4250   -5.2570 hc        81 PE      -0.019800
    485 C1         30.0030   18.9550   -3.7370 c3        81 PE       0.039600
    486 C2         29.0430   19.9350   -4.4570 c3        81 PE       0.039600
    487 H11        27.7930   20.6250   -2.8070 hc        82 PE      -0.019800
    488 H12        29.1530   21.6750   -3.1570 hc        82 PE      -0.019800
    489 H21        26.5630   21.3850   -4.8070 hc        82 PE      -0.019800
    490 H22        28.0530   22.3150   -5.2770 hc        82 PE      -0.019800
    491 C1         28.3630   21.0750   -3.6270 c3        82 PE       0.039600
    492 C2         27.4230   21.9650   -4.4470 c3        82 PE       0.039600
    493 H11        26.0930   22.9050   -2.9370 hc        83 PE      -0.019800
    494 H12        27.6330   23.6950   -3.1670 hc        83 PE      -0.019800
    495 H21        25.3330   23.7350   -5.2970 hc        83 PE      -0.019800
    496 H22        26.8030   24.4750   -5.5370 hc        83 PE      -0.019800
    497 C1         26.8230   23.1750   -3.7070 c3        83 PE       0.039600
    498 C2         26.1330   24.2050   -4.7170 c3        83 PE       0.039600
    499 H11        25.0530   25.2050   -3.1270 hc        84 PE      -0.019800
    500 H12        26.5630   26.0350   -3.7870 hc        84 PE      -0.019800
    501 H21        23.9730   25.7350   -5.2170 hc        84 PE      -0.019800
    502 H22        25.3230   26.8850   -5.7270 hc        84 PE      -0.019800
    503 C1         25.6530   25.4550   -4.0170 c3        84 PE       0.039600
    504 C2         24.8030   26.3850   -4.9070 c3        84 PE       0.039600
    505 H11        23.5030   26.9250   -3.3370 hc        85 PE      -0.019800
    506 H12        24.8430   28.1650   -3.6070 hc        85 PE      -0.019800
    507 H21        22.3130   27.7750   -5.2770 hc        85 PE      -0.019800
    508 H22        23.6830   28.7850   -5.6370 hc        85 PE      -0.019800
    509 C1         24.1230   27.4650   -4.0570 c3        85 PE       0.039600
    510 C2         23.1430   28.3150   -4.7970 c3        85 PE       0.039600
    511 H11        22.2330   29.1450   -3.0770 hc        86 PE      -0.019800
    512 H12        23.3330   30.1850   -3.5870 hc        86 PE      -0.019800
    513 H21        20.9930   29.7050   -5.2870 hc        86 PE      -0.019800
    514 H22        22.1030   31.0450   -5.5770 hc        86 PE      -0.019800
    515 C1         22.6030   29.5050   -4.0470 c3        86 PE       0.039600
    516 C2         21.6530   30.4250   -4.7870 c3        86 PE       0.039600
    517 H11        20.4630   30.6950   -3.1670 hc        87 PE      -0.019800
    518 H12        21.6530   31.8650   -3.2770 hc        87 PE      -0.019800
    519 H21        19.2230   31.6350   -5.2270 hc        87 PE      -0.019800
    520 H22        20.4430   32.8250   -5.4870 hc        87 PE      -0.019800
    521 C1         20.9530   31.3350   -3.9170 c3        87 PE       0.039600
    522 C2         19.9130   32.2950   -4.6870 c3        87 PE       0.039600
    523 H11        18.8830   32.5450   -2.8570 hc        88 PE      -0.019800
    524 H12        19.9330   33.8050   -3.1870 hc        88 PE      -0.019800
    525 H21        18.2430   34.4550   -5.2670 hc        88 PE      -0.019800
    526 H22        18.0430   34.9950   -3.5770 hc        88 PE      -0.019800
    527 C1         19.1730   33.1950   -3.6870 c3        88 PE       0.039600
    528 C2         18.0430   34.1250   -4.2370 c3        88 PE       0.039600
    529 H11        16.5430   32.5050   -4.7470 hc        89 PE      -0.019800
    530 H12        16.6730   32.9650   -3.0870 hc        89 PE      -0.019800
    531 H21        15.6630   34.8550   -5.1570 hc        89 PE      -0.019800
    532 H22        15.5530   34.9550   -3.3070 hc        89 PE      -0.019800
    533 C1         16.6930   33.3750   -4.1070 c3        89 PE       0.039600
    534 C2         15.5130   34.3250   -4.2070 c3        89 PE       0.039600
    535 H11        13.3030   34.3350   -4.2770 hc        90 PE      -0.019800
    536 H12        13.9430   32.9850   -5.1470 hc        90 PE      -0.019800
    537 H21        14.2430   32.9850   -2.0970 hc        90 PE      -0.019800
    538 H22        12.7430   32.4750   -2.8870 hc        90 PE      -0.019800
    539 C1         14.1230   33.6050   -4.2670 c3        90 PE       0.039600
    540 C2         13.8030   32.6650   -3.0570 c3        90 PE       0.039600
    541 H11        22.0030   24.1050   -0.5370 hc        91 PE      -0.019800
    542 H12        22.0430   25.6450    0.2030 hc        91 PE      -0.019800
    543 H21        21.2330   26.7650   -1.7270 hc        91 PE      -0.019800
    544 H22        20.1430   25.6750   -0.9670 hc        91 PE      -0.019800
    545 C1         22.1930   25.1550   -0.7670 c3        91 PE       0.039600
    546 C2         21.0530   25.6950   -1.5770 c3        91 PE       0.039600
    547 H11        21.8630   25.0150   -3.5270 hc        92 PE      -0.019800
    548 H12        20.6530   23.9250   -2.8470 hc        92 PE      -0.019800
    549 H21        20.1030   26.5850   -4.1270 hc        92 PE      -0.019800
    550 H22        18.9330   25.5650   -3.3370 hc        92 PE      -0.019800
    551 C1         20.9230   24.9850   -2.9670 c3        92 PE       0.039600
    552 C2         19.8630   25.5450   -3.9070 c3        92 PE       0.039600
    553 H11        20.6030   25.2250   -5.8770 hc        93 PE      -0.019800
    554 H12        19.5130   23.9050   -5.3570 hc        93 PE      -0.019800
    555 H21        18.5830   26.8750   -6.0270 hc        93 PE      -0.019800
    556 H22        17.5430   25.5050   -5.7470 hc        93 PE      -0.019800
    557 C1         19.6730   24.9850   -5.3570 c3        93 PE       0.039600
    558 C2         18.5230   25.7850   -6.1470 c3        93 PE       0.039600
    559 H11        18.1330   26.2050   -8.3770 hc        94 PE      -0.019800
    560 H12        19.4830   25.1850   -8.0670 hc        94 PE      -0.019800
    561 H21        17.6530   23.3850   -7.1270 hc        94 PE      -0.019800
    562 H22        17.9930   23.6550   -8.8470 hc        94 PE      -0.019800
    563 C1         18.4530   25.3750   -7.7270 c3        94 PE       0.039600
    564 C2         17.5730   24.1050   -7.9470 c3        94 PE       0.039600
    565 H11        15.6630   24.8550   -7.3070 hc        95 PE      -0.019800
    566 H12        16.2030   25.1250   -9.0870 hc        95 PE      -0.019800
    567 H21        15.3930   22.4550   -7.6270 hc        95 PE      -0.019800
    568 H22        15.9230   22.7250   -9.2970 hc        95 PE      -0.019800
    569 C1         16.1330   24.4550   -8.2170 c3        95 PE       0.039600
    570 C2         15.3530   23.1550   -8.4670 c3        95 PE       0.039600
    571 H11        13.2030   23.7050   -7.9770 hc        96 PE      -0.019800
    572 H12        13.7930   24.1150   -9.5770 hc        96 PE      -0.019800
    573 H21        13.4730   21.2450   -8.3870 hc        96 PE      -0.019800
    574 H22        13.7530   21.6450  -10.1270 hc        96 PE      -0.019800
    575 C1         13.8230   23.3350   -8.8070 c3        96 PE       0.039600
    576 C2         13.2330   21.9450   -9.2070 c3        96 PE       0.039600
    577 H11        11.5730   22.9250   -9.9470 hc        97 PE      -0.019800
    578 H12        11.3630   21.2250  -10.1470 hc        97 PE      -0.019800
    579 H21        11.1730   22.7450   -7.4770 hc        97 PE      -0.019800
    580 H22        11.2630   20.9350   -7.5970 hc        97 PE      -0.019800
    581 C1         11.7130   21.9750   -9.4270 c3        97 PE       0.039600
    582 C2         10.8830   21.8650   -8.0470 c3        97 PE       0.039600
    583 H11         9.0930   22.6950   -9.0270 hc        98 PE      -0.019800
    584 H12         9.1030   20.9650   -8.7570 hc        98 PE      -0.019800
    585 H21         7.5830   22.5450   -7.3970 hc        98 PE      -0.019800
    586 H22         9.0130   23.2350   -6.7170 hc        98 PE      -0.019800
    587 C1          9.3930   21.9250   -8.3070 c3        98 PE       0.039600
    588 C2          8.5730   22.2750   -7.0170 c3        98 PE       0.039600
    589 H11         7.7030   20.5050   -6.1470 hc        99 PE      -0.019800
    590 H12         9.4630   20.7050   -5.9870 hc        99 PE      -0.019800
    591 H21         7.6130   22.6950   -4.6570 hc        99 PE      -0.019800
    592 H22         9.3330   22.4650   -4.4770 hc        99 PE      -0.019800
    593 C1          8.5030   21.2350   -5.9870 c3        99 PE       0.039600
    594 C2          8.3930   21.9250   -4.6670 c3        99 PE       0.039600
    595 H11         7.5330   21.4750   -2.7470 hc       100 PE      -0.019800
    596 H12         7.5830   20.0850   -3.9570 hc       100 PE      -0.019800
    597 H21         9.7630   21.2750   -2.1170 hc       100 PE      -0.019800
    598 H22        10.1130   20.2650   -3.4870 hc       100 PE      -0.019800
    599 C1          8.1130   20.9350   -3.4970 c3       100 PE       0.039600
    600 C2          9.3530   20.4550   -2.7170 c3       100 PE       0.039600
    601 H11         8.2530   19.3250   -1.1570 hc       101 PE      -0.019800
    602 H12         8.6330   18.4150   -2.4670 hc       101 PE      -0.019800
    603 H21        10.8930   19.6050   -0.7070 hc       101 PE      -0.019800
    604 H22        11.0830   18.2150   -1.7770 hc       101 PE      -0.019800
    605 C1          9.0830   19.2050   -1.8570 c3       101 PE       0.039600
    606 C2         10.3830   18.7150   -1.0970 c3       101 PE       0.039600
    607 H11         9.6830   18.0650    0.9230 hc       102 PE      -0.019800
    608 H12         9.3330   16.9450   -0.4270 hc       102 PE      -0.019800
    609 H21        12.1930   17.5750    0.4130 hc       102 PE      -0.019800
    610 H22        11.5130   16.0950   -0.3370 hc       102 PE      -0.019800
    611 C1         10.0730   17.6250    0.0030 c3       102 PE       0.039600
    612 C2         11.3630   16.8650    0.4230 c3       102 PE       0.039600
    613 H11        12.1530   15.3550    1.8530 hc       103 PE      -0.019800
    614 H12        11.4630   16.8850    2.6330 hc       103 PE      -0.019800
    615 H21         9.1630   16.0250    1.9530 hc       103 PE      -0.019800
    616 H22        10.0130   15.0250    3.1230 hc       103 PE      -0.019800
    617 C1         11.3630   16.1050    1.8630 c3       103 PE       0.039600
    618 C2         10.0230   15.3450    2.0830 c3       103 PE       0.039600
    619 H11         9.8430   14.4250    0.0830 hc       104 PE      -0.019800
    620 H12        10.8430   13.5450    1.2030 hc       104 PE      -0.019800
    621 H21         7.7830   13.8950    1.5630 hc       104 PE      -0.019800
    622 H22         8.8330   12.7250    2.4230 hc       104 PE      -0.019800
    623 C1          9.9130   14.1150    1.1230 c3       104 PE       0.039600
    624 C2          8.6730   13.2650    1.4730 c3       104 PE       0.039600
    625 H11         8.0530   12.7650   -0.5870 hc       105 PE      -0.019800
    626 H12         9.0830   11.5350    0.1530 hc       105 PE      -0.019800
    627 H21         7.1030   11.1750    1.8030 hc       105 PE      -0.019800
    628 H22         7.1430   10.3850    0.2430 hc       105 PE      -0.019800
    629 C1          8.3130   12.2850    0.3730 c3       105 PE       0.039600
    630 C2          7.0930   11.3750    0.7230 c3       105 PE       0.039600
    631 H11         5.7330   13.0850    0.9130 hc       106 PE      -0.019800
    632 H12         5.8430   12.4950   -0.6970 hc       106 PE      -0.019800
    633 H21         3.6530   12.0550    0.5530 hc       106 PE      -0.019800
    634 H22         4.5530   11.0450    1.7530 hc       106 PE      -0.019800
    635 C1          5.7630   12.1450    0.3330 c3       106 PE       0.039600
    636 C2          4.4730   11.3350    0.7030 c3       106 PE       0.039600
    637 H11         4.4330   10.2150   -1.1570 hc       107 PE      -0.019800
    638 H12         5.2530    9.3550   -0.0170 hc       107 PE      -0.019800
    639 H21         2.2530    9.8750    0.3430 hc       107 PE      -0.019800
    640 H22         3.2130    8.4350    0.8430 hc       107 PE      -0.019800
    641 C1          4.3830   10.0250   -0.0770 c3       107 PE       0.039600
    642 C2          3.0630    9.1950    0.0630 c3       107 PE       0.039600
    643 H11         1.6730    8.0150   -0.9370 hc       108 PE      -0.019800
    644 H12         2.2930    9.2750   -1.9270 hc       108 PE      -0.019800
    645 H21         3.7230    6.6150   -1.0270 hc       108 PE      -0.019800
    646 H22         4.4730    7.9250   -2.0670 hc       108 PE      -0.019800
    647 C1          2.6130    8.5050   -1.2170 c3       108 PE       0.039600
    648 C2          3.5730    7.3850   -1.7870 c3       108 PE       0.039600
    649 H11         1.9530    6.4550   -2.7970 hc       109 PE      -0.019800
    650 H12         2.9130    7.3950   -3.8970 hc       109 PE      -0.019800
    651 H21         2.9430    4.7550   -3.9470 hc       109 PE      -0.019800
    652 H22         4.1930    4.8850   -2.6070 hc       109 PE      -0.019800
    653 C1          2.9830    6.7050   -3.0470 c3       109 PE       0.039600
    654 C2          3.7130    5.3750   -3.4570 c3       109 PE       0.039600
    655 H11         5.0730    4.5250   -4.8270 hc       110 PE      -0.019800
    656 H12         4.3230    6.2150   -5.2870 hc       110 PE      -0.019800
    657 H21         6.3230    6.0050   -3.0670 hc       110 PE      -0.019800
    658 H22         5.9730    7.4150   -4.0570 hc       110 PE      -0.019800
    659 C1          4.8130    5.5550   -4.5570 c3       110 PE       0.039600
    660 C2          6.1230    6.3250   -4.0970 c3       110 PE       0.039600
    661 H11         7.5430    4.9150   -5.1570 hc       111 PE      -0.019800
    662 H12         7.3330    6.5750   -5.8870 hc       111 PE      -0.019800
    663 H21         8.6030    6.0650   -3.1470 hc       111 PE      -0.019800
    664 H22         8.5630    7.5350   -4.0070 hc       111 PE      -0.019800
    665 C1          7.3730    5.9850   -4.9670 c3       111 PE       0.039600
    666 C2          8.6130    6.4550   -4.1770 c3       111 PE       0.039600
    667 H11        10.1030    5.2850   -5.1770 hc       112 PE      -0.019800
    668 H12         9.9030    6.9850   -5.8370 hc       112 PE      -0.019800
    669 H21        11.3630    6.1650   -3.1970 hc       112 PE      -0.019800
    670 H22        10.9130    7.8650   -3.6470 hc       112 PE      -0.019800
    671 C1          9.9930    6.3450   -4.9470 c3       112 PE       0.039600
    672 C2         11.1530    6.8650   -4.0270 c3       112 PE       0.039600
    673 H11        12.7530    6.0250   -5.2170 hc       113 PE      -0.019800
    674 H12        12.3930    7.7350   -5.6070 hc       113 PE      -0.019800
    675 H21        13.7230    6.7550   -3.0270 hc       113 PE      -0.019800
    676 H22        13.3030    8.3150   -3.4170 hc       113 PE      -0.019800
    677 C1         12.5030    7.0050   -4.7870 c3       113 PE       0.039600
    678 C2         13.6530    7.3950   -3.9070 c3       113 PE       0.039600
    679 H11        15.2130    6.7750   -5.3570 hc       114 PE      -0.019800
    680 H12        14.9730    8.4650   -5.3670 hc       114 PE      -0.019800
    681 H21        16.4730    6.8350   -3.2870 hc       114 PE      -0.019800
    682 H22        15.8230    8.5350   -2.9470 hc       114 PE      -0.019800
    683 C1         14.9830    7.6150   -4.6770 c3       114 PE       0.039600
    684 C2         16.1330    7.7950   -3.6970 c3       114 PE       0.039600
    685 H11        17.6030    7.6350   -5.2770 hc       115 PE      -0.019800
    686 H12        17.0130    9.2450   -5.0670 hc       115 PE      -0.019800
    687 H21        18.8330    7.9450   -2.9270 hc       115 PE      -0.019800
    688 H22        18.3230    9.6550   -2.9470 hc       115 PE      -0.019800
    689 C1         17.3230    8.3550   -4.4970 c3       115 PE       0.039600
    690 C2         18.5730    8.7950   -3.5770 c3       115 PE       0.039600
    691 H11        20.0230    8.3850   -5.0270 hc       116 PE      -0.019800
    692 H12        19.6530   10.1350   -4.8770 hc       116 PE      -0.019800
    693 H21        21.4130    8.5050   -3.0070 hc       116 PE      -0.019800
    694 H22        20.6930    9.9850   -2.4570 hc       116 PE      -0.019800
    695 C1         19.8930    9.2150   -4.3270 c3       116 PE       0.039600
    696 C2         21.0730    9.4850   -3.3570 c3       116 PE       0.039600
    697 H11        22.2730    9.9950   -5.0270 hc       117 PE      -0.019800
    698 H12        21.8430   11.4050   -4.1170 hc       117 PE      -0.019800
    699 H21        23.7630    9.1350   -3.1670 hc       117 PE      -0.019800
    700 H22        23.4230   10.6450   -2.3170 hc       117 PE      -0.019800
    701 C1         22.1430   10.3550   -3.9970 c3       117 PE       0.039600
    702 C2         23.5330   10.1950   -3.3170 c3       117 PE       0.039600
    703 H11        25.0430   10.5250   -4.9370 hc       118 PE      -0.019800
    704 H12        24.3630   12.0050   -4.4470 hc       118 PE      -0.019800
    705 H21        26.5130   10.3650   -2.9970 hc       118 PE      -0.019800
    706 H22        25.7830   11.7750   -2.2870 hc       118 PE      -0.019800
    707 C1         24.7430   11.0650   -4.0370 c3       118 PE       0.039600
    708 C2         26.0230   11.3150   -3.2570 c3       118 PE       0.039600
    709 H11        27.3730   11.6150   -4.9070 hc       119 PE      -0.019800
    710 H12        26.6830   13.1450   -4.3970 hc       119 PE      -0.019800
    711 H21        28.7430   11.5750   -2.6070 hc       119 PE      -0.019800
    712 H22        28.1230   13.1850   -2.3170 hc       119 PE      -0.019800
    713 C1         27.0630   12.1850   -4.0170 c3       119 PE       0.039600
    714 C2         28.3630   12.4650   -3.1170 c3       119 PE       0.039600
    715 H11        29.7230   12.4450   -4.8070 hc       120 PE      -0.019800
    716 H12        29.1930   14.0450   -4.4070 hc       120 PE      -0.019800
    717 H21        30.7230   13.9150   -2.3770 hc       120 PE      -0.019800
    718 H22        31.2030   12.2450   -2.7970 hc       120 PE      -0.019800
    719 C1         29.5230   13.1050   -3.9470 c3       120 PE       0.039600
    720 C2         30.9130   13.2250   -3.1970 c3       120 PE       0.039600
    721 H11       -30.9070   12.5950   -0.1970 hc       121 PE      -0.019800
    722 H12       -31.3470   14.1350   -0.1870 hc       121 PE      -0.019800
    723 H21       -32.8170   11.9850   -1.6470 hc       121 PE      -0.019800
    724 H22       -31.4870   12.9850   -2.3370 hc       121 PE      -0.019800
    725 C1        -31.8470   13.1550   -0.2070 c3       121 PE       0.039600
    726 C2        -32.3670   12.9950   -1.6970 c3       121 PE       0.039600
    727 H11       -34.3470   13.8650   -1.4170 hc       122 PE      -0.019800
    728 H12       -33.1570   14.9350   -2.2170 hc       122 PE      -0.019800
    729 H21       -34.0370   12.4250   -3.6470 hc       122 PE      -0.019800
    730 H22       -33.5570   13.9050   -4.3670 hc       122 PE      -0.019800
    731 C1        -33.5270   13.9050   -2.1470 c3       122 PE       0.039600
    732 C2        -34.0970   13.5050   -3.4970 c3       122 PE       0.039600
    733 H11       -35.9570   13.3450   -4.4870 hc       123 PE      -0.019800
    734 H12       -36.1570   13.6250   -2.7470 hc       123 PE      -0.019800
    735 H21       -35.1070   15.7250   -4.6670 hc       123 PE      -0.019800
    736 H22       -35.2970   15.8650   -2.9470 hc       123 PE      -0.019800
    737 C1        -35.5770   13.9150   -3.6270 c3       123 PE       0.039600
    738 C2        -35.7470   15.4050   -3.8370 c3       123 PE       0.039600
    739 H11       -37.4770   15.3650   -4.9870 hc       124 PE      -0.019800
    740 H12       -37.8170   15.5150   -3.2970 hc       124 PE      -0.019800
    741 H21       -36.8970   17.6350   -5.2970 hc       124 PE      -0.019800
    742 H22       -36.8170   17.9450   -3.5170 hc       124 PE      -0.019800
    743 C1        -37.1270   15.8650   -4.0770 c3       124 PE       0.039600
    744 C2        -37.3170   17.3750   -4.3170 c3       124 PE       0.039600
    745 H11       -39.2970   17.3650   -5.1170 hc       125 PE      -0.019800
    746 H12       -39.2370   17.5650   -3.3570 hc       125 PE      -0.019800
    747 H21       -38.7470   19.4150   -5.7770 hc       125 PE      -0.019800
    748 H22       -38.1170   20.0350   -4.3570 hc       125 PE      -0.019800
    749 C1        -38.7570   17.8550   -4.2970 c3       125 PE       0.039600
    750 C2        -38.9270   19.3650   -4.6970 c3       125 PE       0.039600
    751 H11       -41.1070   19.5850   -4.8270 hc       126 PE      -0.019800
    752 H12       -40.2870   19.9050   -3.1770 hc       126 PE      -0.019800
    753 H21       -40.1470   21.7450   -5.5570 hc       126 PE      -0.019800
    754 H22       -39.5370   21.9850   -3.9270 hc       126 PE      -0.019800
    755 C1        -40.2770   20.0250   -4.2670 c3       126 PE       0.039600
    756 C2        -40.3270   21.4950   -4.5070 c3       126 PE       0.039600
    757 H11        37.5730   21.5150   -4.7270 hc       127 PE      -0.019800
    758 H12        38.0630   21.7450   -3.0570 hc       127 PE      -0.019800
    759 H21        38.4530   23.8350   -5.3470 hc       127 PE      -0.019800
    760 H22        38.9530   24.1250   -3.6770 hc       127 PE      -0.019800
    761 C1         38.3030   22.0350   -4.0870 c3       127 PE       0.039600
    762 C2         38.2130   23.5950   -4.2970 c3       127 PE       0.039600
    763 H11        36.0830   23.4050   -4.3770 hc       128 PE      -0.019800
    764 H12        36.6230   23.9950   -2.7970 hc       128 PE      -0.019800
    765 H21        36.6730   25.5250   -5.3870 hc       128 PE      -0.019800
    766 H22        37.3030   26.2950   -3.9570 hc       128 PE      -0.019800
    767 C1         36.7930   24.0750   -3.8770 c3       128 PE       0.039600
    768 C2         36.5530   25.5650   -4.2970 c3       128 PE       0.039600
    769 H11        34.3430   25.2750   -4.1070 hc       129 PE      -0.019800
    770 H12        35.2130   25.8350   -2.7970 hc       129 PE      -0.019800
    771 H21        34.9030   27.4350   -5.4070 hc       129 PE      -0.019800
    772 H22        35.7030   28.0550   -4.0070 hc       129 PE      -0.019800
    773 C1         35.1630   25.9650   -3.8870 c3       129 PE       0.039600
    774 C2         34.8430   27.4450   -4.3070 c3       129 PE       0.039600
    775 H11        32.8030   27.0450   -3.5470 hc       130 PE      -0.019800
    776 H12        33.7030   28.3550   -2.7770 hc       130 PE      -0.019800
    777 H21        31.9930   28.3650   -5.1970 hc       130 PE      -0.019800
    778 H22        33.5030   29.4150   -5.2870 hc       130 PE      -0.019800
    779 C1         33.4630   27.8950   -3.7470 c3       130 PE       0.039600
    780 C2         32.7330   28.9750   -4.6470 c3       130 PE       0.039600
    781 H11        31.3330   29.4750   -3.0570 hc       131 PE      -0.019800
    782 H12        32.8330   30.4650   -3.1570 hc       131 PE      -0.019800
    783 H21        30.4630   30.4650   -5.1270 hc       131 PE      -0.019800
    784 H22        31.9130   31.5550   -5.1270 hc       131 PE      -0.019800
    785 C1         32.0230   30.0050   -3.7270 c3       131 PE       0.039600
    786 C2         31.2030   30.9950   -4.5170 c3       131 PE       0.039600
    787 H11        29.9830   31.7450   -2.8970 hc       132 PE      -0.019800
    788 H12        31.4430   32.6250   -3.1870 hc       132 PE      -0.019800
    789 H21        28.9130   32.4550   -4.9670 hc       132 PE      -0.019800
    790 H22        30.2430   33.6050   -5.4070 hc       132 PE      -0.019800
    791 C1         30.6130   32.1350   -3.7070 c3       132 PE       0.039600
    792 C2         29.7130   33.0850   -4.5970 c3       132 PE       0.039600
    793 H11        28.8430   33.7450   -2.7470 hc       133 PE      -0.019800
    794 H12        30.0430   34.7950   -3.2470 hc       133 PE      -0.019800
    795 H21        27.2230   34.3450   -4.6470 hc       133 PE      -0.019800
    796 H22        28.4230   35.3750   -5.4170 hc       133 PE      -0.019800
    797 C1         29.2230   34.2050   -3.6670 c3       133 PE       0.039600
    798 C2         28.1030   34.9650   -4.4570 c3       133 PE       0.039600
    799 H11        27.1630   35.5850   -2.5770 hc       134 PE      -0.019800
    800 H12        28.4130   36.7250   -3.0370 hc       134 PE      -0.019800
    801 H21        25.9030   36.4750   -4.7770 hc       134 PE      -0.019800
    802 H22        27.3030   37.5550   -4.9470 hc       134 PE      -0.019800
    803 C1         27.6330   36.0650   -3.4370 c3       134 PE       0.039600
    804 C2         26.6730   37.0250   -4.2270 c3       134 PE       0.039600
    805 H11        25.4230   37.6650   -2.6470 hc       135 PE      -0.019800
    806 H12        26.9530   38.4850   -2.5470 hc       135 PE      -0.019800
    807 H21        24.9730   39.0850   -4.9070 hc       135 PE      -0.019800
    808 H22        26.3130   40.1250   -4.4270 hc       135 PE      -0.019800
    809 C1         26.1930   38.1450   -3.2670 c3       135 PE       0.039600
    810 C2         25.5730   39.4150   -4.0470 c3       135 PE       0.039600
    811 H11        24.0130  -39.2150   -3.7870 hc       136 PE      -0.019800
    812 H12        23.8230  -40.5950   -2.7470 hc       136 PE      -0.019800
    813 H21        26.0530  -38.3450   -2.3970 hc       136 PE      -0.019800
    814 H22        25.8130  -39.7250   -1.3470 hc       136 PE      -0.019800
    815 C1         24.5730  -39.8950   -3.1370 c3       136 PE       0.039600
    816 C2         25.2930  -39.0350   -2.0270 c3       136 PE       0.039600
    817 H11        23.8730  -37.3950   -1.7470 hc       137 PE      -0.019800
    818 H12        23.3730  -38.8450   -1.0070 hc       137 PE      -0.019800
    819 H21        25.0430  -38.4650    0.9930 hc       137 PE      -0.019800
    820 H22        24.0630  -37.0550    0.5730 hc       137 PE      -0.019800
    821 C1         24.2730  -38.2450   -1.1870 c3       137 PE       0.039600
    822 C2         24.8430  -37.7350    0.2030 c3       137 PE       0.039600
    823 H11        25.9530  -36.3550   -1.0070 hc       138 PE      -0.019800
    824 H12        25.8830  -35.9350    0.7430 hc       138 PE      -0.019800
    825 H21        27.4930  -38.4950   -0.2270 hc       138 PE      -0.019800
    826 H22        27.3630  -37.6750    1.3130 hc       138 PE      -0.019800
    827 C1         25.9730  -36.7550    0.0130 c3       138 PE       0.039600
    828 C2         27.3630  -37.4950    0.2330 c3       138 PE       0.039600
    829 H11        28.6830  -36.3950   -1.1170 hc       139 PE      -0.019800
    830 H12        28.4830  -35.6550    0.5130 hc       139 PE      -0.019800
    831 H21        29.8130  -37.5950    1.5430 hc       139 PE      -0.019800
    832 H22        30.6230  -36.4850    0.4830 hc       139 PE      -0.019800
    833 C1         28.6330  -36.5850   -0.0470 c3       139 PE       0.039600
    834 C2         29.8630  -37.2750    0.4930 c3       139 PE       0.039600
    835 H11        29.7830  -39.2350   -0.6970 hc       140 PE      -0.019800
    836 H12        30.8030  -38.0650   -1.2570 hc       140 PE      -0.019800
    837 H21        31.3930  -39.3350    1.3830 hc       140 PE      -0.019800
    838 H22        32.5130  -38.3850    0.3830 hc       140 PE      -0.019800
    839 C1         30.4530  -38.4650   -0.2970 c3       140 PE       0.039600
    840 C2         31.6830  -39.1050    0.3530 c3       140 PE       0.039600
    841 H11        31.3130   38.8150   -0.2470 hc       141 PE      -0.019800
    842 H12        32.2130   39.7850   -1.4570 hc       141 PE      -0.019800
    843 H21        33.4530   38.8150    1.2730 hc       141 PE      -0.019800
    844 H22        34.2830   39.7850    0.1430 hc       141 PE      -0.019800
    845 C1         32.1130   39.5550   -0.3970 c3       141 PE       0.039600
    846 C2         33.4830   39.0450    0.2030 c3       141 PE       0.039600
    847 H11        33.0330   37.1150   -0.7770 hc       142 PE      -0.019800
    848 H12        34.5030   37.9350   -1.3970 hc       142 PE      -0.019800
    849 H21        35.1430   36.0050   -0.1270 hc       142 PE      -0.019800
    850 H22        34.0130   36.5250    1.1630 hc       142 PE      -0.019800
    851 C1         33.8930   37.7350   -0.5070 c3       142 PE       0.039600
    852 C2         34.7530   36.8650    0.4330 c3       142 PE       0.039600
    853 H11        35.6430   38.4850    1.7730 hc       143 PE      -0.019800
    854 H12        36.3230   36.9350    1.9230 hc       143 PE      -0.019800
    855 H21        36.7030   38.8650   -0.3570 hc       143 PE      -0.019800
    856 H22        37.2830   37.1950   -0.4770 hc       143 PE      -0.019800
    857 C1         35.9630   37.6350    1.1530 c3       143 PE       0.039600
    858 C2         37.1130   38.0250    0.2230 c3       143 PE       0.039600
    859 H11        37.9730   39.3950    1.6130 hc       144 PE      -0.019800
    860 H12        38.7430   37.8250    1.6630 hc       144 PE      -0.019800
    861 H21        39.2630   39.8850   -0.6470 hc       144 PE      -0.019800
    862 H22        39.8630   38.2850   -0.6770 hc       144 PE      -0.019800
    863 C1         38.3630   38.5950    0.9730 c3       144 PE       0.039600
    864 C2         39.5430   39.0650    0.0230 c3       144 PE       0.039600
    865 H11       -39.7070   40.3350    1.3930 hc       145 PE      -0.019800
    866 H12       -38.9070   38.7650    1.5930 hc       145 PE      -0.019800
    867 H21       -38.4170   40.4450   -1.0070 hc       145 PE      -0.019800
    868 H22       -37.4870   38.9850   -0.4670 hc       145 PE      -0.019800
    869 C1        -39.2970   39.4750    0.8430 c3       145 PE       0.039600
    870 C2        -38.0870   39.8550   -0.1470 c3       145 PE       0.039600
    871 H11       -37.7170  -38.6450    1.3130 hc       146 PE      -0.019800
    872 H12       -36.6670  -40.0950    1.3430 hc       146 PE      -0.019800
    873 H21       -36.5370  -37.7350   -0.6670 hc       146 PE      -0.019800
    874 H22       -35.6070  -39.2750   -0.7470 hc       146 PE      -0.019800
    875 C1        -37.0970  -39.3150    0.7030 c3       146 PE       0.039600
    876 C2        -36.0370  -38.5150   -0.0870 c3       146 PE       0.039600
    877 H11       -35.4870  -37.1350    1.4030 hc       147 PE      -0.019800
    878 H12       -34.4670  -38.6050    1.5230 hc       147 PE      -0.019800
    879 H21       -33.3170  -36.5750    0.5830 hc       147 PE      -0.019800
    880 H22       -34.2070  -36.8850   -0.9170 hc       147 PE      -0.019800
    881 C1        -34.9970  -37.9350    0.8330 c3       147 PE       0.039600
    882 C2        -33.7870  -37.3650   -0.0270 c3       147 PE       0.039600
    883 H11       -32.6370  -39.0550    0.5530 hc       148 PE      -0.019800
    884 H12       -33.1970  -39.1250   -1.0670 hc       148 PE      -0.019800
    885 H21       -31.0670  -36.9650   -0.2470 hc       148 PE      -0.019800
    886 H22       -31.5270  -37.2750   -1.8870 hc       148 PE      -0.019800
    887 C1        -32.7070  -38.4450   -0.3570 c3       148 PE       0.039600
    888 C2        -31.4070  -37.7650   -0.9170 c3       148 PE       0.039600
    889 H11       -30.0070  -39.1050    0.0930 hc       149 PE      -0.019800
    890 H12       -30.6570  -39.6850   -1.4970 hc       149 PE      -0.019800
    891 H21       -28.7170  -37.3650   -1.0970 hc       149 PE      -0.019800
    892 H22       -29.2970  -37.9550   -2.6470 hc       149 PE      -0.019800
    893 C1        -30.2670  -38.8150   -0.9370 c3       149 PE       0.039600
    894 C2        -29.0270  -38.2750   -1.6270 c3       149 PE       0.039600
    895 H11       -26.9870   41.0250   -1.9270 hc       150 PE      -0.019800
    896 H12       -27.9570   40.1450   -0.6470 hc       150 PE      -0.019800
    897 H21       -28.2670   39.7750   -3.6170 hc       150 PE      -0.019800
    898 H22       -27.5070   38.7350   -2.3070 hc       150 PE      -0.019800
    899 C1        -27.9670   40.6150   -1.6370 c3       150 PE       0.039600
    900 C2        -28.2970   39.4550   -2.5670 c3       150 PE       0.039600
    901 H11       -32.0270  -32.8050    5.3230 hc       151 PE      -0.019800
    902 H12       -31.6270  -32.3750    3.6330 hc       151 PE      -0.019800
    903 H21       -30.6170  -34.5450    3.4030 hc       151 PE      -0.019800
    904 H22       -30.7970  -34.7750    5.0030 hc       151 PE      -0.019800
    905 C1        -31.2170  -32.7150    4.5930 c3       151 PE       0.039600
    906 C2        -30.3870  -34.0050    4.3330 c3       151 PE       0.039600
    907 H11       -28.5170  -33.0350    3.9630 hc       152 PE      -0.019800
    908 H12       -28.7970  -33.6250    5.6830 hc       152 PE      -0.019800
    909 H21       -28.3170  -35.6750    3.4330 hc       152 PE      -0.019800
    910 H22       -28.4870  -35.9950    5.1630 hc       152 PE      -0.019800
    911 C1        -28.8470  -33.8550    4.6130 c3       152 PE       0.039600
    912 C2        -28.1570  -35.2450    4.4330 c3       152 PE       0.039600
    913 H11       -26.2670  -34.1150    4.0430 hc       153 PE      -0.019800
    914 H12       -26.3870  -34.7450    5.7230 hc       153 PE      -0.019800
    915 H21       -25.8670  -36.5750    3.3230 hc       153 PE      -0.019800
    916 H22       -25.8770  -36.9650    5.0030 hc       153 PE      -0.019800
    917 C1        -26.5570  -34.9650    4.6630 c3       153 PE       0.039600
    918 C2        -25.6270  -36.1550    4.3030 c3       153 PE       0.039600
    919 H11       -23.7970  -35.0650    3.7130 hc       154 PE      -0.019800
    920 H12       -23.9270  -35.3250    5.4430 hc       154 PE      -0.019800
    921 H21       -23.3370  -37.3550    3.3430 hc       154 PE      -0.019800
    922 H22       -23.5170  -37.8550    4.9430 hc       154 PE      -0.019800
    923 C1        -24.1170  -35.7950    4.4630 c3       154 PE       0.039600
    924 C2        -23.1970  -36.9850    4.3630 c3       154 PE       0.039600
    925 H11       -21.5470  -36.5650    5.8230 hc       155 PE      -0.019800
    926 H12       -21.1570  -37.6450    4.5830 hc       155 PE      -0.019800
    927 H21       -21.4870  -34.5850    4.3830 hc       155 PE      -0.019800
    928 H22       -21.4570  -35.5450    2.8630 hc       155 PE      -0.019800
    929 C1        -21.7370  -36.7350    4.7530 c3       155 PE       0.039600
    930 C2        -21.1570  -35.5250    3.9130 c3       155 PE       0.039600
    931 H11       -19.3270  -35.8350    5.0230 hc       156 PE      -0.019800
    932 H12       -19.2970  -36.3150    3.3330 hc       156 PE      -0.019800
    933 H21       -19.2470  -33.4450    4.4830 hc       156 PE      -0.019800
    934 H22       -19.8070  -33.6250    2.8630 hc       156 PE      -0.019800
    935 C1        -19.6570  -35.5350    4.0230 c3       156 PE       0.039600
    936 C2        -19.1370  -34.0850    3.6030 c3       156 PE       0.039600
    937 H11       -17.0470  -34.0050    3.9030 hc       157 PE      -0.019800
    938 H12       -17.6070  -34.9850    2.5030 hc       157 PE      -0.019800
    939 H21       -17.7670  -31.9550    2.5430 hc       157 PE      -0.019800
    940 H22       -17.9470  -32.9650    1.0630 hc       157 PE      -0.019800
    941 C1        -17.6870  -34.0150    3.0130 c3       157 PE       0.039600
    942 C2        -17.4570  -32.8750    2.0430 c3       157 PE       0.039600
    943 H11       -15.3670  -33.0450    2.5730 hc       158 PE      -0.019800
    944 H12       -15.8170  -33.6750    1.0230 hc       158 PE      -0.019800
    945 H21       -15.6370  -30.7450    1.6830 hc       158 PE      -0.019800
    946 H22       -16.1170  -31.3250    0.1030 hc       158 PE      -0.019800
    947 C1        -15.9970  -32.8350    1.7030 c3       158 PE       0.039600
    948 C2        -15.4770  -31.5550    0.9630 c3       158 PE       0.039600
    949 H11       -13.4370  -32.0050    1.4130 hc       159 PE      -0.019800
    950 H12       -13.9470  -32.3350   -0.2470 hc       159 PE      -0.019800
    951 H21       -13.3770  -29.6350    0.9630 hc       159 PE      -0.019800
    952 H22       -14.1870  -29.7050   -0.4570 hc       159 PE      -0.019800
    953 C1        -14.0370  -31.6150    0.5730 c3       159 PE       0.039600
    954 C2        -13.4370  -30.2950    0.0830 c3       159 PE       0.039600
    955 H11       -12.5870  -31.0450   -1.5470 hc       160 PE      -0.019800
    956 H12       -11.7570  -29.5050   -0.9470 hc       160 PE      -0.019800
    957 H21       -11.3170  -32.3150    0.0330 hc       160 PE      -0.019800
    958 H22       -11.0770  -30.9550    1.1330 hc       160 PE      -0.019800
    959 C1        -12.1670  -30.4950   -0.6970 c3       160 PE       0.039600
    960 C2        -11.0670  -31.2450    0.0730 c3       160 PE       0.039600
    961 H11        -9.6970  -31.2050   -1.5970 hc       161 PE      -0.019800
    962 H12        -9.5870  -29.7450   -0.7970 hc       161 PE      -0.019800
    963 H21        -8.6170  -31.0350    1.2630 hc       161 PE      -0.019800
    964 H22        -7.5770  -30.9050   -0.2070 hc       161 PE      -0.019800
    965 C1         -9.7270  -30.8150   -0.5770 c3       161 PE       0.039600
    966 C2         -8.4670  -31.3750    0.2330 c3       161 PE       0.039600
    967 H11        -8.8470  -33.4350    0.7330 hc       162 PE      -0.019800
    968 H12        -8.3370  -33.0550   -0.9770 hc       162 PE      -0.019800
    969 H21        -6.7570  -34.2350    0.9730 hc       162 PE      -0.019800
    970 H22        -6.5970  -32.5350    1.3830 hc       162 PE      -0.019800
    971 C1         -8.1470  -32.8750    0.0930 c3       162 PE       0.039600
    972 C2         -6.7170  -33.2350    0.5430 c3       162 PE       0.039600
    973 H11        -5.5570  -33.7750   -1.3070 hc       163 PE      -0.019800
    974 H12        -5.6270  -32.0050   -0.9370 hc       163 PE      -0.019800
    975 H21        -4.2270  -34.1850    0.6130 hc       163 PE      -0.019800
    976 H22        -4.1870  -32.5850    1.1430 hc       163 PE      -0.019800
    977 C1         -5.5870  -33.0150   -0.5170 c3       163 PE       0.039600
    978 C2         -4.2070  -33.1650    0.2130 c3       163 PE       0.039600
    979 H11        -2.9170  -33.3650   -1.5070 hc       164 PE      -0.019800
    980 H12        -3.1570  -31.8050   -0.9170 hc       164 PE      -0.019800
    981 H21        -1.6770  -34.1550    0.6330 hc       164 PE      -0.019800
    982 H22        -1.5170  -32.5450    1.1930 hc       164 PE      -0.019800
    983 C1         -3.0070  -32.8250   -0.5570 c3       164 PE       0.039600
    984 C2         -1.6470  -33.1250    0.2630 c3       164 PE       0.039600
    985 H11        -0.2970  -33.3950   -1.4470 hc       165 PE      -0.019800
    986 H12        -0.4370  -31.7150   -0.8870 hc       165 PE      -0.019800
    987 H21         0.8730  -33.8750    0.8630 hc       165 PE      -0.019800
    988 H22         0.8430  -32.1550    1.1430 hc       165 PE      -0.019800
    989 C1         -0.3870  -32.7550   -0.5670 c3       165 PE       0.039600
    990 C2          0.8530  -32.9050    0.3330 c3       165 PE       0.039600
    991 H11         2.2930  -33.1350   -1.3170 hc       166 PE      -0.019800
    992 H12         2.1030  -31.5550   -0.6970 hc       166 PE      -0.019800
    993 H21         3.6930  -33.9150    0.6730 hc       166 PE      -0.019800
    994 H22         3.4830  -32.3150    1.4030 hc       166 PE      -0.019800
    995 C1          2.2330  -32.5950   -0.3670 c3       166 PE       0.039600
    996 C2          3.5630  -32.8450    0.4430 c3       166 PE       0.039600
    997 H11         4.8930  -32.9150   -1.1870 hc       167 PE      -0.019800
    998 H12         4.6330  -31.2250   -0.6370 hc       167 PE      -0.019800
    999 H21         6.4830  -33.3250    0.5130 hc       167 PE      -0.019800
   1000 H22         5.9730  -31.9150    1.4930 hc       167 PE      -0.019800
   1001 C1          4.8030  -32.2650   -0.3070 c3       167 PE       0.039600
   1002 C2          6.1230  -32.2850    0.4730 c3       167 PE       0.039600
   1003 H11         7.4330  -31.8350   -1.1970 hc       168 PE      -0.019800
   1004 H12         6.8730  -30.3650   -0.4070 hc       168 PE      -0.019800
   1005 H21         8.7130  -32.4350    1.0330 hc       168 PE      -0.019800
   1006 H22         8.2930  -30.7650    1.4230 hc       168 PE      -0.019800
   1007 C1          7.2030  -31.3950   -0.2170 c3       168 PE       0.039600
   1008 C2          8.5630  -31.4450    0.6030 c3       168 PE       0.039600
   1009 H11         9.9330  -31.7650   -1.0170 hc       169 PE      -0.019800
   1010 H12         9.5230  -30.1350   -0.8270 hc       169 PE      -0.019800
   1011 H21        11.2030  -31.7750    1.1530 hc       169 PE      -0.019800
   1012 H22        10.8930  -30.0350    1.2230 hc       169 PE      -0.019800
   1013 C1          9.8030  -31.0150   -0.2270 c3       169 PE       0.039600
   1014 C2         11.0630  -30.8750    0.5330 c3       169 PE       0.039600
   1015 H11        12.8230  -31.5250   -0.7170 hc       170 PE      -0.019800
   1016 H12        12.1630  -29.8550   -1.0570 hc       170 PE      -0.019800
   1017 H21        13.6530  -31.0250    1.4030 hc       170 PE      -0.019800
   1018 H22        13.4030  -29.2750    1.2230 hc       170 PE      -0.019800
   1019 C1         12.4230  -30.6050   -0.2970 c3       170 PE       0.039600
   1020 C2         13.5630  -30.2150    0.6730 c3       170 PE       0.039600
   1021 H11        15.1930  -30.8250   -0.7070 hc       171 PE      -0.019800
   1022 H12        14.6930  -29.1550   -0.6870 hc       171 PE      -0.019800
   1023 H21        16.1430  -30.3950    1.6930 hc       171 PE      -0.019800
   1024 H22        15.7330  -28.6550    1.4630 hc       171 PE      -0.019800
   1025 C1         14.8730  -30.0150   -0.0370 c3       171 PE       0.039600
   1026 C2         16.0130  -29.5950    0.9530 c3       171 PE       0.039600
   1027 H11        17.4330  -30.4350   -0.4270 hc       172 PE      -0.019800
   1028 H12        17.1530  -28.6950   -0.6070 hc       172 PE      -0.019800
   1029 H21        18.5930  -29.9750    1.6630 hc       172 PE      -0.019800
   1030 H22        18.4730  -28.2250    1.5730 hc       172 PE      -0.019800
   1031 C1         17.3530  -29.4850    0.1230 c3       172 PE       0.039600
   1032 C2         18.5930  -29.1250    0.9630 c3       172 PE       0.039600
   1033 H11        19.9530  -30.0050   -0.4770 hc       173 PE      -0.019800
   1034 H12        19.8230  -28.2250   -0.6470 hc       173 PE      -0.019800
   1035 H21        21.3330  -29.7650    1.5630 hc       173 PE      -0.019800
   1036 H22        21.1030  -27.9950    1.4930 hc       173 PE      -0.019800
   1037 C1         19.8230  -29.0650    0.0630 c3       173 PE       0.039600
   1038 C2         21.1630  -28.9150    0.8930 c3       173 PE       0.039600
   1039 H11        22.5730  -29.7150   -0.6070 hc       174 PE      -0.019800
   1040 H12        22.0730  -28.0950   -0.8670 hc       174 PE      -0.019800
   1041 H21        23.9730  -29.0150    1.4430 hc       174 PE      -0.019800
   1042 H22        23.4230  -27.3850    1.1730 hc       174 PE      -0.019800
   1043 C1         22.3630  -28.7850   -0.0670 c3       174 PE       0.039600
   1044 C2         23.6730  -28.3150    0.6530 c3       174 PE       0.039600
   1045 H11        24.9430  -28.9250   -1.0570 hc       175 PE      -0.019800
   1046 H12        24.6430  -27.2450   -1.0470 hc       175 PE      -0.019800
   1047 H21        26.4430  -28.5950    1.1430 hc       175 PE      -0.019800
   1048 H22        26.3430  -26.9250    0.7230 hc       175 PE      -0.019800
   1049 C1         24.8430  -28.0850   -0.3670 c3       175 PE       0.039600
   1050 C2         26.2630  -27.9250    0.2830 c3       175 PE       0.039600
   1051 H11        27.5630  -29.1950   -0.7770 hc       176 PE      -0.019800
   1052 H12        27.1930  -27.7750   -1.7470 hc       176 PE      -0.019800
   1053 H21        28.6330  -27.2950    0.9330 hc       176 PE      -0.019800
   1054 H22        28.6930  -26.3450   -0.6570 hc       176 PE      -0.019800
   1055 C1         27.3930  -28.1050   -0.7270 c3       176 PE       0.039600
   1056 C2         28.6430  -27.3250   -0.1670 c3       176 PE       0.039600
   1057 H11        30.0130  -28.9950   -0.7170 hc       177 PE      -0.019800
   1058 H12        29.9530  -27.6550   -1.8570 hc       177 PE      -0.019800
   1059 H21        31.3730  -27.5750    0.8330 hc       177 PE      -0.019800
   1060 H22        31.1830  -26.1950   -0.1470 hc       177 PE      -0.019800
   1061 C1         29.9730  -27.9050   -0.7870 c3       177 PE       0.039600
   1062 C2         31.2630  -27.2850   -0.2170 c3       177 PE       0.039600
   1063 H11        32.5430  -28.5650   -1.2170 hc       178 PE      -0.019800
   1064 H12        32.4430  -26.9550   -2.0070 hc       178 PE      -0.019800
   1065 H21        34.7530  -27.4250   -0.7070 hc       178 PE      -0.019800
   1066 H22        33.8830  -27.6150    0.7330 hc       178 PE      -0.019800
   1067 C1         32.5830  -27.4850   -1.0570 c3       178 PE       0.039600
   1068 C2         33.8430  -27.0650   -0.2170 c3       178 PE       0.039600
   1069 H11        34.0230  -25.0350   -0.9570 hc       179 PE      -0.019800
   1070 H12        33.0430  -25.2650    0.5130 hc       179 PE      -0.019800
   1071 H21        35.6630  -24.1750    0.4930 hc       179 PE      -0.019800
   1072 H22        36.1630  -25.6950    0.1130 hc       179 PE      -0.019800
   1073 C1         33.9830  -25.5450    0.0130 c3       179 PE       0.039600
   1074 C2         35.3730  -25.2150    0.7030 c3       179 PE       0.039600
   1075 H11        34.6230  -25.0550    2.8130 hc       180 PE      -0.019800
   1076 H12        35.2330  -26.6250    2.3730 hc       180 PE      -0.019800
   1077 H21        37.3530  -26.1450    3.1230 hc       180 PE      -0.019800
   1078 H22        36.7030  -24.6050    3.6230 hc       180 PE      -0.019800
   1079 C1         35.4130  -25.5550    2.2330 c3       180 PE       0.039600
   1080 C2         36.8330  -25.2550    2.7530 c3       180 PE       0.039600
   1081 H11       -27.7570  -10.7250   -6.1270 hc       181 PE      -0.019800
   1082 H12       -26.5770  -10.3750   -7.4070 hc       181 PE      -0.019800
   1083 H21       -27.9570  -11.6050   -8.6570 hc       181 PE      -0.019800
   1084 H22       -28.8170  -10.1350   -8.8570 hc       181 PE      -0.019800
   1085 C1        -27.5970  -10.1650   -7.0570 c3       181 PE       0.039600
   1086 C2        -28.5270  -10.8550   -8.0770 c3       181 PE       0.039600
   1087 H11       -29.4770  -12.3650   -6.8470 hc       182 PE      -0.019800
   1088 H12       -30.3170  -10.8550   -6.8370 hc       182 PE      -0.019800
   1089 H21       -30.2870  -13.2550   -8.9470 hc       182 PE      -0.019800
   1090 H22       -30.7570  -11.6650   -9.4470 hc       182 PE      -0.019800
   1091 C1        -29.8170  -11.5650   -7.5070 c3       182 PE       0.039600
   1092 C2        -30.6370  -12.2950   -8.5470 c3       182 PE       0.039600
   1093 H11       -32.0470  -13.2050   -7.0870 hc       183 PE      -0.019800
   1094 H12       -32.5270  -11.5850   -7.5970 hc       183 PE      -0.019800
   1095 H21       -32.3170  -14.1250   -9.3170 hc       183 PE      -0.019800
   1096 H22       -33.2270  -12.7550   -9.8270 hc       183 PE      -0.019800
   1097 C1        -32.0970  -12.5250   -7.9470 c3       183 PE       0.039600
   1098 C2        -32.9370  -13.3150   -8.9270 c3       183 PE       0.039600
   1099 H11       -33.8470  -14.3150   -7.2870 hc       184 PE      -0.019800
   1100 H12       -34.9670  -13.2650   -8.0270 hc       184 PE      -0.019800
   1101 H21       -34.0870  -15.8450   -9.4070 hc       184 PE      -0.019800
   1102 H22       -35.4370  -14.7750   -9.9070 hc       184 PE      -0.019800
   1103 C1        -34.1670  -13.9650   -8.2770 c3       184 PE       0.039600
   1104 C2        -34.8470  -15.1350   -9.0570 c3       184 PE       0.039600
   1105 H11       -35.2270  -16.1050   -7.1170 hc       185 PE      -0.019800
   1106 H12       -36.6270  -15.2350   -7.6870 hc       185 PE      -0.019800
   1107 H21       -35.5170  -17.7150   -9.0770 hc       185 PE      -0.019800
   1108 H22       -36.9470  -16.7850   -9.5970 hc       185 PE      -0.019800
   1109 C1        -35.8070  -15.8850   -8.0270 c3       185 PE       0.039600
   1110 C2        -36.4070  -17.1750   -8.7270 c3       185 PE       0.039600
   1111 H11       -36.5570  -18.5750   -7.0970 hc       186 PE      -0.019800
   1112 H12       -37.8470  -17.3850   -7.1470 hc       186 PE      -0.019800
   1113 H21       -37.7370  -19.9050   -8.8470 hc       186 PE      -0.019800
   1114 H22       -38.6470  -18.5650   -9.3370 hc       186 PE      -0.019800
   1115 C1        -37.2570  -18.0550   -7.7770 c3       186 PE       0.039600
   1116 C2        -38.2570  -19.0350   -8.4270 c3       186 PE       0.039600
   1117 H11       -38.6270  -20.1750   -6.6670 hc       187 PE      -0.019800
   1118 H12       -39.7970  -18.7650   -6.9770 hc       187 PE      -0.019800
   1119 H21       -39.7570  -21.4050   -8.5170 hc       187 PE      -0.019800
   1120 H22       -40.9070  -20.0450   -8.7470 hc       187 PE      -0.019800
   1121 C1        -39.2670  -19.6350   -7.3770 c3       187 PE       0.039600
   1122 C2        -40.3070  -20.5950   -8.0170 c3       187 PE       0.039600
   1123 H11        39.4830  -22.0350   -6.4470 hc       188 PE      -0.019800
   1124 H12        38.3830  -20.6350   -6.4070 hc       188 PE      -0.019800
   1125 H21        37.5630  -23.1350   -6.9570 hc       188 PE      -0.019800
   1126 H22        38.1330  -22.8150   -8.5470 hc       188 PE      -0.019800
   1127 C1         38.8430  -21.3850   -7.0670 c3       188 PE       0.039600
   1128 C2         37.7130  -22.3050   -7.6670 c3       188 PE       0.039600
   1129 H11        36.2130  -20.8950   -7.0870 hc       189 PE      -0.019800
   1130 H12        36.5330  -20.8050   -8.7470 hc       189 PE      -0.019800
   1131 H21        35.2130  -23.4550   -7.7070 hc       189 PE      -0.019800
   1132 H22        35.4930  -22.9950   -9.2570 hc       189 PE      -0.019800
   1133 C1         36.4330  -21.5450   -7.9470 c3       189 PE       0.039600
   1134 C2         35.2630  -22.5350   -8.2970 c3       189 PE       0.039600
   1135 H11        33.6430  -21.2350   -7.5870 hc       190 PE      -0.019800
   1136 H12        33.8130  -21.3450   -9.3370 hc       190 PE      -0.019800
   1137 H21        32.7830  -23.7350   -7.8870 hc       190 PE      -0.019800
   1138 H22        32.8130  -23.4750   -9.5770 hc       190 PE      -0.019800
   1139 C1         33.8430  -21.9250   -8.4070 c3       190 PE       0.039600
   1140 C2         32.6730  -22.9450   -8.6270 c3       190 PE       0.039600
   1141 H11        31.2530  -21.7450   -7.7670 hc       191 PE      -0.019800
   1142 H12        31.1830  -21.6250   -9.5170 hc       191 PE      -0.019800
   1143 H21        30.4930  -24.2250   -7.9670 hc       191 PE      -0.019800
   1144 H22        30.1530  -23.9550   -9.7370 hc       191 PE      -0.019800
   1145 C1         31.3030  -22.3350   -8.6970 c3       191 PE       0.039600
   1146 C2         30.1930  -23.4950   -8.7370 c3       191 PE       0.039600
   1147 H11        28.8330  -22.5450   -7.3670 hc       192 PE      -0.019800
   1148 H12        28.5730  -22.0050   -9.0070 hc       192 PE      -0.019800
   1149 H21        27.8130  -24.8750   -8.1370 hc       192 PE      -0.019800
   1150 H22        27.7430  -24.2750   -9.7070 hc       192 PE      -0.019800
   1151 C1         28.7630  -22.8950   -8.4070 c3       192 PE       0.039600
   1152 C2         27.6630  -23.9250   -8.6770 c3       192 PE       0.039600
   1153 H11        26.1930  -22.9450   -7.2770 hc       193 PE      -0.019800
   1154 H12        26.1230  -22.3750   -8.8870 hc       193 PE      -0.019800
   1155 H21        25.1530  -25.1850   -8.0970 hc       193 PE      -0.019800
   1156 H22        25.0930  -24.5550   -9.7170 hc       193 PE      -0.019800
   1157 C1         26.2730  -23.2950   -8.3070 c3       193 PE       0.039600
   1158 C2         25.0230  -24.2550   -8.6670 c3       193 PE       0.039600
   1159 H11        23.5530  -23.2450   -7.3970 hc       194 PE      -0.019800
   1160 H12        23.5230  -22.8750   -9.0970 hc       194 PE      -0.019800
   1161 H21        22.6230  -25.6650   -8.1870 hc       194 PE      -0.019800
   1162 H22        22.5730  -24.9250   -9.7370 hc       194 PE      -0.019800
   1163 C1         23.6430  -23.7050   -8.3870 c3       194 PE       0.039600
   1164 C2         22.4530  -24.6950   -8.6770 c3       194 PE       0.039600
   1165 H11        21.0430  -23.7350   -7.3270 hc       195 PE      -0.019800
   1166 H12        20.9130  -23.3550   -9.0870 hc       195 PE      -0.019800
   1167 H21        20.1630  -26.0750   -7.7770 hc       195 PE      -0.019800
   1168 H22        20.2430  -25.7650   -9.4170 hc       195 PE      -0.019800
   1169 C1         21.0830  -24.1450   -8.3470 c3       195 PE       0.039600
   1170 C2         20.0030  -25.2450   -8.4770 c3       195 PE       0.039600
   1171 H11        18.5730  -24.0850   -7.3970 hc       196 PE      -0.019800
   1172 H12        18.4730  -23.9250   -9.1570 hc       196 PE      -0.019800
   1173 H21        17.5330  -26.2250   -7.3070 hc       196 PE      -0.019800
   1174 H22        17.7430  -26.5850   -8.8570 hc       196 PE      -0.019800
   1175 C1         18.6430  -24.6350   -8.3470 c3       196 PE       0.039600
   1176 C2         17.4930  -25.6950   -8.2670 c3       196 PE       0.039600
   1177 H11        15.9330  -24.4150   -7.5070 hc       197 PE      -0.019800
   1178 H12        16.0230  -24.4750   -9.2270 hc       197 PE      -0.019800
   1179 H21        15.0130  -26.8650   -7.5070 hc       197 PE      -0.019800
   1180 H22        15.1630  -26.8650   -9.1870 hc       197 PE      -0.019800
   1181 C1         16.0430  -25.1150   -8.3470 c3       197 PE       0.039600
   1182 C2         14.9630  -26.1750   -8.3570 c3       197 PE       0.039600
   1183 H11        13.5830  -24.6450   -7.9270 hc       198 PE      -0.019800
   1184 H12        13.5430  -25.2050   -9.5570 hc       198 PE      -0.019800
   1185 H21        12.3730  -26.7450   -7.1670 hc       198 PE      -0.019800
   1186 H22        12.5230  -27.4550   -8.8170 hc       198 PE      -0.019800
   1187 C1         13.5730  -25.5650   -8.5270 c3       198 PE       0.039600
   1188 C2         12.3830  -26.5250   -8.2470 c3       198 PE       0.039600
   1189 H11        10.9730  -24.8950   -8.5070 hc       199 PE      -0.019800
   1190 H12        11.1430  -25.9050   -9.8270 hc       199 PE      -0.019800
   1191 H21         9.9130  -27.1050   -7.2070 hc       199 PE      -0.019800
   1192 H22        10.0330  -27.8250   -8.7970 hc       199 PE      -0.019800
   1193 C1         11.0930  -25.9650   -8.7270 c3       199 PE       0.039600
   1194 C2          9.8830  -26.8650   -8.2770 c3       199 PE       0.039600
   1195 H11         8.6030  -25.1950   -8.1570 hc       200 PE      -0.019800
   1196 H12         8.5030  -26.0450   -9.6770 hc       200 PE      -0.019800
   1197 H21         7.4930  -27.3550   -7.1170 hc       200 PE      -0.019800
   1198 H22         7.5830  -28.1350   -8.6470 hc       200 PE      -0.019800
   1199 C1          8.5330  -26.1950   -8.5970 c3       200 PE       0.039600
   1200 C2          7.3830  -27.1550   -8.1970 c3       200 PE       0.039600
   1201 H11         5.9230  -25.8650   -7.6370 hc       201 PE      -0.019800
   1202 H12         6.0230  -25.8750   -9.4570 hc       201 PE      -0.019800
   1203 H21         5.1430  -28.1550   -7.5570 hc       201 PE      -0.019800
   1204 H22         5.0530  -28.2850   -9.1570 hc       201 PE      -0.019800
   1205 C1          6.0230  -26.4850   -8.5370 c3       201 PE       0.039600
   1206 C2          4.9030  -27.4950   -8.4070 c3       201 PE       0.039600
   1207 H11         3.2530  -26.3950   -7.5370 hc       202 PE      -0.019800
   1208 H12         3.3030  -26.2050   -9.1770 hc       202 PE      -0.019800
   1209 H21         2.3630  -28.6950   -7.6470 hc       202 PE      -0.019800
   1210 H22         2.5430  -28.6250   -9.4270 hc       202 PE      -0.019800
   1211 C1          3.4130  -27.0050   -8.4370 c3       202 PE       0.039600
   1212 C2          2.3330  -28.0450   -8.5270 c3       202 PE       0.039600
   1213 H11         0.6630  -26.9350   -7.5770 hc       203 PE      -0.019800
   1214 H12         0.7430  -26.6350   -9.2670 hc       203 PE      -0.019800
   1215 H21        -0.2570  -29.0350   -7.7070 hc       203 PE      -0.019800
   1216 H22        -0.2270  -29.0850   -9.5570 hc       203 PE      -0.019800
   1217 C1          0.8430  -27.4450   -8.5270 c3       203 PE       0.039600
   1218 C2         -0.3270  -28.4750   -8.6570 c3       203 PE       0.039600
   1219 H11        -1.8370  -26.9350   -7.9870 hc       204 PE      -0.019800
   1220 H12        -1.8070  -27.2950   -9.6970 hc       204 PE      -0.019800
   1221 H21        -2.7470  -28.9850   -7.3170 hc       204 PE      -0.019800
   1222 H22        -2.8770  -29.6850   -8.9370 hc       204 PE      -0.019800
   1223 C1         -1.7470  -27.7550   -8.7070 c3       204 PE       0.039600
   1224 C2         -2.8870  -28.7450   -8.3770 c3       204 PE       0.039600
   1225 H11        -4.3970  -27.3450   -7.7470 hc       205 PE      -0.019800
   1226 H12        -4.2770  -27.5450   -9.4970 hc       205 PE      -0.019800
   1227 H21        -5.3470  -29.5750   -7.3970 hc       205 PE      -0.019800
   1228 H22        -5.3470  -30.0750   -9.0270 hc       205 PE      -0.019800
   1229 C1         -4.2670  -28.0950   -8.5370 c3       205 PE       0.039600
   1230 C2         -5.3770  -29.1650   -8.4170 c3       205 PE       0.039600
   1231 H11        -6.9070  -27.6750   -7.7670 hc       206 PE      -0.019800
   1232 H12        -6.8570  -28.0250   -9.4470 hc       206 PE      -0.019800
   1233 H21        -7.9070  -29.9250   -7.1470 hc       206 PE      -0.019800
   1234 H22        -7.6670  -30.4650   -8.8070 hc       206 PE      -0.019800
   1235 C1         -6.8070  -28.5150   -8.4670 c3       206 PE       0.039600
   1236 C2         -7.8870  -29.5850   -8.1870 c3       206 PE       0.039600
   1237 H11        -9.4370  -28.0550   -7.9670 hc       207 PE      -0.019800
   1238 H12        -9.4070  -28.7350   -9.5670 hc       207 PE      -0.019800
   1239 H21       -10.3870  -30.1850   -7.1470 hc       207 PE      -0.019800
   1240 H22       -10.4970  -30.9250   -8.6270 hc       207 PE      -0.019800
   1241 C1         -9.3270  -29.0050   -8.5070 c3       207 PE       0.039600
   1242 C2        -10.4970  -29.9150   -8.2070 c3       207 PE       0.039600
   1243 H11       -11.8270  -28.6350   -7.3870 hc       208 PE      -0.019800
   1244 H12       -11.9170  -28.5750   -9.1470 hc       208 PE      -0.019800
   1245 H21       -13.1470  -30.7450   -7.2570 hc       208 PE      -0.019800
   1246 H22       -13.0070  -30.9150   -9.0070 hc       208 PE      -0.019800
   1247 C1        -11.9070  -29.2550   -8.2870 c3       208 PE       0.039600
   1248 C2        -13.1970  -30.1850   -8.2070 c3       208 PE       0.039600
   1249 H11       -14.4970  -28.6650   -7.6770 hc       209 PE      -0.019800
   1250 H12       -14.4470  -28.8950   -9.3570 hc       209 PE      -0.019800
   1251 H21       -15.9470  -30.7650   -7.2670 hc       209 PE      -0.019800
   1252 H22       -15.6870  -31.2450   -8.9870 hc       209 PE      -0.019800
   1253 C1        -14.5170  -29.4650   -8.4270 c3       209 PE       0.039600
   1254 C2        -15.8270  -30.4050   -8.2970 c3       209 PE       0.039600
   1255 H11       -17.3570  -28.9750   -7.9870 hc       210 PE      -0.019800
   1256 H12       -16.9270  -29.3450   -9.7370 hc       210 PE      -0.019800
   1257 H21       -19.0670  -30.4450   -9.5070 hc       210 PE      -0.019800
   1258 H22       -18.6570  -30.9150   -7.8870 hc       210 PE      -0.019800
   1259 C1        -17.1270  -29.7450   -8.7370 c3       210 PE       0.039600
   1260 C2        -18.2270  -30.7650   -8.8770 c3       210 PE       0.039600
   1261 H11         0.9330  -23.0250    3.9530 hc       211 PE      -0.019800
   1262 H12         1.3230  -21.7250    2.7230 hc       211 PE      -0.019800
   1263 H21         3.1530  -22.7150    5.0830 hc       211 PE      -0.019800
   1264 H22         2.6830  -21.1050    4.5630 hc       211 PE      -0.019800
   1265 C1          1.6930  -22.5950    3.2830 c3       211 PE       0.039600
   1266 C2          2.8830  -22.1250    4.2030 c3       211 PE       0.039600
   1267 H11         4.3630  -22.9350    3.0830 hc       212 PE      -0.019800
   1268 H12         4.0530  -21.2150    2.5230 hc       212 PE      -0.019800
   1269 H21         5.4630  -22.1950    5.0830 hc       212 PE      -0.019800
   1270 H22         5.2930  -20.4450    4.5630 hc       212 PE      -0.019800
   1271 C1          4.1830  -21.8950    3.3730 c3       212 PE       0.039600
   1272 C2          5.4030  -21.4850    4.2430 c3       212 PE       0.039600
   1273 H11         6.7930  -22.5850    3.0130 hc       213 PE      -0.019800
   1274 H12         6.7230  -20.8550    2.6630 hc       213 PE      -0.019800
   1275 H21         8.0030  -21.8550    5.2530 hc       213 PE      -0.019800
   1276 H22         7.7930  -20.1850    4.7730 hc       213 PE      -0.019800
   1277 C1          6.7430  -21.5950    3.4730 c3       213 PE       0.039600
   1278 C2          7.9030  -21.1950    4.3830 c3       213 PE       0.039600
   1279 H11         9.4630  -22.1250    3.3130 hc       214 PE      -0.019800
   1280 H12         9.2830  -20.3950    2.8630 hc       214 PE      -0.019800
   1281 H21        10.7730  -21.5750    5.3330 hc       214 PE      -0.019800
   1282 H22        10.2930  -19.8650    5.1530 hc       214 PE      -0.019800
   1283 C1          9.2230  -21.1250    3.6830 c3       214 PE       0.039600
   1284 C2         10.4930  -20.7950    4.6130 c3       214 PE       0.039600
   1285 H11        11.9830  -21.6750    3.4230 hc       215 PE      -0.019800
   1286 H12        11.6430  -20.0050    2.8330 hc       215 PE      -0.019800
   1287 H21        13.2330  -21.0350    5.2530 hc       215 PE      -0.019800
   1288 H22        12.9730  -19.3850    5.1730 hc       215 PE      -0.019800
   1289 C1         11.7830  -20.6350    3.7230 c3       215 PE       0.039600
   1290 C2         13.0430  -20.2450    4.5030 c3       215 PE       0.039600
   1291 H11        14.4030  -21.0950    3.0530 hc       216 PE      -0.019800
   1292 H12        14.0330  -19.2850    2.8730 hc       216 PE      -0.019800
   1293 H21        15.8030  -20.5250    5.0630 hc       216 PE      -0.019800
   1294 H22        15.2930  -18.8050    4.8230 hc       216 PE      -0.019800
   1295 C1         14.2630  -20.1250    3.5430 c3       216 PE       0.039600
   1296 C2         15.5530  -19.7550    4.3230 c3       216 PE       0.039600
   1297 H11        17.0030  -20.6450    3.0130 hc       217 PE      -0.019800
   1298 H12        16.7530  -19.0250    2.5530 hc       217 PE      -0.019800
   1299 H21        18.1530  -19.9550    5.1130 hc       217 PE      -0.019800
   1300 H22        17.9230  -18.2550    4.5830 hc       217 PE      -0.019800
   1301 C1         16.8330  -19.6550    3.4530 c3       217 PE       0.039600
   1302 C2         18.0930  -19.2850    4.2530 c3       217 PE       0.039600
   1303 H11        19.6530  -20.2450    3.0030 hc       218 PE      -0.019800
   1304 H12        19.2730  -18.5750    2.6330 hc       218 PE      -0.019800
   1305 H21        20.6430  -19.4850    5.2130 hc       218 PE      -0.019800
   1306 H22        20.4230  -17.8550    4.5930 hc       218 PE      -0.019800
   1307 C1         19.4130  -19.2850    3.4630 c3       218 PE       0.039600
   1308 C2         20.5930  -18.8950    4.2930 c3       218 PE       0.039600
   1309 H11        22.1930  -19.9750    3.1730 hc       219 PE      -0.019800
   1310 H12        21.7830  -18.3350    2.5430 hc       219 PE      -0.019800
   1311 H21        23.1530  -18.5650    5.3130 hc       219 PE      -0.019800
   1312 H22        22.7530  -17.1650    4.3830 hc       219 PE      -0.019800
   1313 C1         21.8930  -18.9550    3.4530 c3       219 PE       0.039600
   1314 C2         23.0130  -18.2250    4.2830 c3       219 PE       0.039600
   1315 H11        24.6430  -19.3450    3.2430 hc       220 PE      -0.019800
   1316 H12        24.4430  -17.6950    2.7230 hc       220 PE      -0.019800
   1317 H21        25.6030  -18.5550    5.4330 hc       220 PE      -0.019800
   1318 H22        25.3630  -16.8350    4.9030 hc       220 PE      -0.019800
   1319 C1         24.4030  -18.3450    3.6130 c3       220 PE       0.039600
   1320 C2         25.5830  -17.8650    4.5830 c3       220 PE       0.039600
   1321 H11        27.3830  -18.9350    3.8830 hc       221 PE      -0.019800
   1322 H12        27.0430  -17.3950    3.0130 hc       221 PE      -0.019800
   1323 H21        27.9830  -17.5750    5.8030 hc       221 PE      -0.019800
   1324 H22        27.5730  -16.1350    4.8830 hc       221 PE      -0.019800
   1325 C1         27.0330  -17.9050    3.9830 c3       221 PE       0.039600
   1326 C2         28.0230  -17.1250    4.7930 c3       221 PE       0.039600
   1327 H11        29.4330  -16.3150    3.3930 hc       222 PE      -0.019800
   1328 H12        29.8930  -16.3550    5.0530 hc       222 PE      -0.019800
   1329 H21        29.9430  -18.7850    3.1130 hc       222 PE      -0.019800
   1330 H22        29.8230  -18.8850    4.9330 hc       222 PE      -0.019800
   1331 C1         29.4530  -16.9750    4.2630 c3       222 PE       0.039600
   1332 C2         30.2030  -18.3250    4.0730 c3       222 PE       0.039600
   1333 H11        32.1330  -17.3550    3.5230 hc       223 PE      -0.019800
   1334 H12        32.0730  -18.0550    5.1930 hc       223 PE      -0.019800
   1335 H21        33.6530  -19.3050    3.9530 hc       223 PE      -0.019800
   1336 H22        32.5530  -19.4750    2.5430 hc       223 PE      -0.019800
   1337 C1         31.7430  -18.1550    4.1530 c3       223 PE       0.039600
   1338 C2         32.6130  -19.3850    3.6330 c3       223 PE       0.039600
   1339 H11        32.0830  -20.4950    5.4030 hc       224 PE      -0.019800
   1340 H12        31.2530  -20.9350    4.0730 hc       224 PE      -0.019800
   1341 H21        32.8230  -22.8050    4.4930 hc       224 PE      -0.019800
   1342 H22        34.1730  -21.6750    4.4730 hc       224 PE      -0.019800
   1343 C1         32.2930  -20.6950    4.3430 c3       224 PE       0.039600
   1344 C2         33.1730  -21.8650    4.0530 c3       224 PE       0.039600
   1345 H11        33.8630  -21.2450    2.1030 hc       225 PE      -0.019800
   1346 H12        34.3130  -22.8750    2.5330 hc       225 PE      -0.019800
   1347 H21        31.4030  -22.2750    2.3330 hc       225 PE      -0.019800
   1348 H22        32.1230  -23.8350    2.0830 hc       225 PE      -0.019800
   1349 C1         33.4830  -22.1550    2.5830 c3       225 PE       0.039600
   1350 C2         32.2630  -22.7750    1.8630 c3       225 PE       0.039600
   1351 H11        32.3230  -21.4750    0.0830 hc       226 PE      -0.019800
   1352 H12        33.1130  -23.0350   -0.0970 hc       226 PE      -0.019800
   1353 H21        31.2230  -23.9550   -0.9670 hc       226 PE      -0.019800
   1354 H22        30.7930  -22.2750   -1.1570 hc       226 PE      -0.019800
   1355 C1         32.2330  -22.5350    0.3430 c3       226 PE       0.039600
   1356 C2         30.9230  -23.0650   -0.4070 c3       226 PE       0.039600
   1357 H11        29.7330  -23.8650    1.3530 hc       227 PE      -0.019800
   1358 H12        29.5930  -22.2550    0.9030 hc       227 PE      -0.019800
   1359 H21        28.4630  -24.2850   -1.0270 hc       227 PE      -0.019800
   1360 H22        28.1730  -22.4950   -0.9470 hc       227 PE      -0.019800
   1361 C1         29.6630  -23.2450    0.4530 c3       227 PE       0.039600
   1362 C2         28.3230  -23.4150   -0.3770 c3       227 PE       0.039600
   1363 H11        27.1930  -24.4650    1.1830 hc       228 PE      -0.019800
   1364 H12        26.9130  -22.7150    1.1330 hc       228 PE      -0.019800
   1365 H21        25.7430  -24.7750   -0.9670 hc       228 PE      -0.019800
   1366 H22        25.3130  -23.0050   -0.7470 hc       228 PE      -0.019800
   1367 C1         27.0230  -23.6050    0.5130 c3       228 PE       0.039600
   1368 C2         25.6430  -23.9350   -0.2670 c3       228 PE       0.039600
   1369 H11        24.5230  -24.9950    1.2930 hc       229 PE      -0.019800
   1370 H12        24.1530  -23.2350    1.0930 hc       229 PE      -0.019800
   1371 H21        23.4630  -25.4150   -0.8570 hc       229 PE      -0.019800
   1372 H22        23.0630  -23.7250   -1.0870 hc       229 PE      -0.019800
   1373 C1         24.3930  -24.1750    0.5730 c3       229 PE       0.039600
   1374 C2         23.1830  -24.5050   -0.3170 c3       229 PE       0.039600
   1375 H11        21.8430  -25.2750    1.3230 hc       230 PE      -0.019800
   1376 H12        21.6430  -23.5650    0.8230 hc       230 PE      -0.019800
   1377 H21        20.8930  -26.0550   -0.7470 hc       230 PE      -0.019800
   1378 H22        20.7730  -24.3250   -1.3270 hc       230 PE      -0.019800
   1379 C1         21.8630  -24.5850    0.4730 c3       230 PE       0.039600
   1380 C2         20.7630  -25.0050   -0.4570 c3       230 PE       0.039600
   1381 H11        19.3030  -25.4050    1.2630 hc       231 PE      -0.019800
   1382 H12        19.4030  -23.8550    0.7630 hc       231 PE      -0.019800
   1383 H21        18.3430  -26.3850   -0.8970 hc       231 PE      -0.019800
   1384 H22        18.0530  -24.5950   -1.2170 hc       231 PE      -0.019800
   1385 C1         19.3830  -24.8550    0.3230 c3       231 PE       0.039600
   1386 C2         18.1630  -25.3950   -0.4670 c3       231 PE       0.039600
   1387 H11        17.0630  -26.3050    1.1130 hc       232 PE      -0.019800
   1388 H12        16.8830  -24.4650    0.8530 hc       232 PE      -0.019800
   1389 H21        15.8130  -26.6850   -0.8670 hc       232 PE      -0.019800
   1390 H22        15.6830  -24.9050   -1.1270 hc       232 PE      -0.019800
   1391 C1         16.9830  -25.4650    0.4130 c3       232 PE       0.039600
   1392 C2         15.7530  -25.7050   -0.3670 c3       232 PE       0.039600
   1393 H11        14.5730  -26.4650    1.2530 hc       233 PE      -0.019800
   1394 H12        14.2130  -24.7550    0.8130 hc       233 PE      -0.019800
   1395 H21        13.3430  -27.1450   -0.8870 hc       233 PE      -0.019800
   1396 H22        13.0730  -25.4650   -1.2670 hc       233 PE      -0.019800
   1397 C1         14.4230  -25.7550    0.4330 c3       233 PE       0.039600
   1398 C2         13.1730  -26.1650   -0.4270 c3       233 PE       0.039600
   1399 H11        11.9330  -27.1350    1.0530 hc       234 PE      -0.019800
   1400 H12        11.8030  -25.3450    1.0130 hc       234 PE      -0.019800
   1401 H21        10.8730  -27.2250   -1.2970 hc       234 PE      -0.019800
   1402 H22        10.4630  -25.4950   -1.1070 hc       234 PE      -0.019800
   1403 C1         11.9030  -26.2550    0.4030 c3       234 PE       0.039600
   1404 C2         10.6730  -26.4350   -0.5670 c3       234 PE       0.039600
   1405 H11         9.5830  -27.5450    1.0230 hc       235 PE      -0.019800
   1406 H12         9.0930  -25.7750    0.8130 hc       235 PE      -0.019800
   1407 H21         8.3230  -27.9950   -1.1470 hc       235 PE      -0.019800
   1408 H22         8.1830  -26.2350   -1.3070 hc       235 PE      -0.019800
   1409 C1          9.3930  -26.7050    0.3330 c3       235 PE       0.039600
   1410 C2          8.1630  -27.0650   -0.5870 c3       235 PE       0.039600
   1411 H11         7.0030  -28.1550    0.8830 hc       236 PE      -0.019800
   1412 H12         6.6930  -26.4250    0.7630 hc       236 PE      -0.019800
   1413 H21         5.5330  -28.3950   -1.1970 hc       236 PE      -0.019800
   1414 H22         5.4930  -26.6050   -1.2570 hc       236 PE      -0.019800
   1415 C1          6.8730  -27.3350    0.1730 c3       236 PE       0.039600
   1416 C2          5.5330  -27.4750   -0.5870 c3       236 PE       0.039600
   1417 H11         4.3730  -28.2550    1.0530 hc       237 PE      -0.019800
   1418 H12         4.1630  -26.5150    0.7930 hc       237 PE      -0.019800
   1419 H21         3.1130  -28.7850   -0.8370 hc       237 PE      -0.019800
   1420 H22         2.8430  -27.0050   -1.2570 hc       237 PE      -0.019800
   1421 C1          4.2730  -27.4850    0.2830 c3       237 PE       0.039600
   1422 C2          2.9130  -27.7650   -0.4770 c3       237 PE       0.039600
   1423 H11         1.7230  -28.3250    1.3230 hc       238 PE      -0.019800
   1424 H12         1.6030  -26.6350    0.7330 hc       238 PE      -0.019800
   1425 H21         0.5630  -29.1550   -0.8470 hc       238 PE      -0.019800
   1426 H22         0.2930  -27.5150   -1.2270 hc       238 PE      -0.019800
   1427 C1          1.6330  -27.6950    0.4330 c3       238 PE       0.039600
   1428 C2          0.3930  -28.1850   -0.3670 c3       238 PE       0.039600
   1429 H11        -0.6870  -29.2350    1.3030 hc       239 PE      -0.019800
   1430 H12        -1.2970  -27.5450    0.9030 hc       239 PE      -0.019800
   1431 H21        -1.8370  -29.9550   -0.7770 hc       239 PE      -0.019800
   1432 H22        -2.0670  -28.3150   -1.1770 hc       239 PE      -0.019800
   1433 C1         -0.8670  -28.4850    0.5330 c3       239 PE       0.039600
   1434 C2         -2.0270  -28.9850   -0.3070 c3       239 PE       0.039600
   1435 H11        -3.3770  -30.0650    1.0630 hc       240 PE      -0.019800
   1436 H12        -3.3270  -28.3850    1.3430 hc       240 PE      -0.019800
   1437 H21        -4.8970  -29.9650   -0.6470 hc       240 PE      -0.019800
   1438 H22        -4.2570  -28.3550   -1.1570 hc       240 PE      -0.019800
   1439 C1         -3.3670  -29.1150    0.5230 c3       240 PE       0.039600
   1440 C2         -4.5770  -28.9750   -0.3070 c3       240 PE       0.039600
   1441 H11        38.8230  -20.4850    5.6430 hc       241 PE      -0.019800
   1442 H12        37.7930  -21.4050    4.6130 hc       241 PE      -0.019800
   1443 H21        37.8030  -22.0250    7.6330 hc       241 PE      -0.019800
   1444 H22        36.5630  -22.3050    6.5130 hc       241 PE      -0.019800
   1445 C1         38.3730  -21.4750    5.5430 c3       241 PE       0.039600
   1446 C2         37.3330  -21.5650    6.7530 c3       241 PE       0.039600
   1447 H11        37.4630  -19.3550    7.0930 hc       242 PE      -0.019800
   1448 H12        36.0930  -19.9150    6.1630 hc       242 PE      -0.019800
   1449 H21        36.4830  -20.3650    9.1630 hc       242 PE      -0.019800
   1450 H22        35.1130  -20.9850    8.1630 hc       242 PE      -0.019800
   1451 C1         36.7230  -20.1650    7.0230 c3       242 PE       0.039600
   1452 C2         35.8630  -20.1850    8.2830 c3       242 PE       0.039600
   1453 H11        35.8230  -18.1750    8.9630 hc       243 PE      -0.019800
   1454 H12        34.9030  -18.3350    7.4230 hc       243 PE      -0.019800
   1455 H21        33.5230  -17.8450    9.5930 hc       243 PE      -0.019800
   1456 H22        33.8230  -19.5150   10.0230 hc       243 PE      -0.019800
   1457 C1         35.0930  -18.7750    8.4030 c3       243 PE       0.039600
   1458 C2         33.7230  -18.8350    9.1730 c3       243 PE       0.039600
   1459 H11        32.1930  -18.6150    7.5430 hc       244 PE      -0.019800
   1460 H12        32.6930  -20.2150    7.7630 hc       244 PE      -0.019800
   1461 H21        31.1230  -18.7450    9.9130 hc       244 PE      -0.019800
   1462 H22        31.5130  -20.4850    9.8730 hc       244 PE      -0.019800
   1463 C1         32.5130  -19.2950    8.3330 c3       244 PE       0.039600
   1464 C2         31.2730  -19.6150    9.2630 c3       244 PE       0.039600
   1465 H11        29.8430  -19.0850    7.8330 hc       245 PE      -0.019800
   1466 H12        30.2530  -20.9350    7.9930 hc       245 PE      -0.019800
   1467 H21        28.6230  -19.1350    9.8430 hc       245 PE      -0.019800
   1468 H22        28.7730  -20.8450    9.9830 hc       245 PE      -0.019800
   1469 C1         30.0330  -19.9650    8.4530 c3       245 PE       0.039600
   1470 C2         28.7030  -20.0450    9.2430 c3       245 PE       0.039600
   1471 H11        27.2930  -19.5350    7.6630 hc       246 PE      -0.019800
   1472 H12        27.6930  -21.2550    7.7930 hc       246 PE      -0.019800
   1473 H21        26.0730  -19.7650    9.9430 hc       246 PE      -0.019800
   1474 H22        26.3530  -21.5750    9.6430 hc       246 PE      -0.019800
   1475 C1         27.4730  -20.3550    8.3730 c3       246 PE       0.039600
   1476 C2         26.2030  -20.5750    9.2130 c3       246 PE       0.039600
   1477 H11        24.9930  -19.6850    7.6530 hc       247 PE      -0.019800
   1478 H12        25.2930  -21.4450    7.4830 hc       247 PE      -0.019800
   1479 H21        23.5030  -19.9650    9.5130 hc       247 PE      -0.019800
   1480 H22        23.8030  -21.7050    9.5330 hc       247 PE      -0.019800
   1481 C1         25.0330  -20.6450    8.1830 c3       247 PE       0.039600
   1482 C2         23.6530  -20.8350    8.8730 c3       247 PE       0.039600
   1483 H11        22.4130  -20.2050    7.2130 hc       248 PE      -0.019800
   1484 H12        22.6530  -21.9050    7.3430 hc       248 PE      -0.019800
   1485 H21        21.0430  -20.0250    9.2430 hc       248 PE      -0.019800
   1486 H22        21.2330  -21.7650    9.6230 hc       248 PE      -0.019800
   1487 C1         22.4730  -21.0150    7.9530 c3       248 PE       0.039600
   1488 C2         21.1730  -21.0250    8.8230 c3       248 PE       0.039600
   1489 H11        19.9830  -21.1250    7.0730 hc       249 PE      -0.019800
   1490 H12        20.0630  -22.6650    7.8330 hc       249 PE      -0.019800
   1491 H21        18.5230  -20.4350    8.9230 hc       249 PE      -0.019800
   1492 H22        18.9730  -22.0050    9.7730 hc       249 PE      -0.019800
   1493 C1         19.9830  -21.5950    8.0630 c3       249 PE       0.039600
   1494 C2         18.7130  -21.5050    8.8330 c3       249 PE       0.039600
   1495 H11        17.4430  -21.6350    7.0930 hc       250 PE      -0.019800
   1496 H12        17.8230  -23.2350    7.7730 hc       250 PE      -0.019800
   1497 H21        16.2030  -21.2750    9.3330 hc       250 PE      -0.019800
   1498 H22        16.5030  -23.0550    9.6730 hc       250 PE      -0.019800
   1499 C1         17.5930  -22.1950    8.0230 c3       250 PE       0.039600
   1500 C2         16.3030  -22.2850    8.9130 c3       250 PE       0.039600
   1501 H11        14.7930  -21.8350    7.3230 hc       251 PE      -0.019800
   1502 H12        15.2130  -23.4350    7.4230 hc       251 PE      -0.019800
   1503 H21        13.7330  -21.7050    9.5430 hc       251 PE      -0.019800
   1504 H22        13.8730  -23.5250    9.7230 hc       251 PE      -0.019800
   1505 C1         15.0130  -22.5950    8.0930 c3       251 PE       0.039600
   1506 C2         13.7130  -22.6750    9.0430 c3       251 PE       0.039600
   1507 H11        12.2530  -22.0350    7.6030 hc       252 PE      -0.019800
   1508 H12        12.4530  -23.8050    7.5830 hc       252 PE      -0.019800
   1509 H21        10.9730  -22.3050    9.8830 hc       252 PE      -0.019800
   1510 H22        11.2230  -24.0450    9.6230 hc       252 PE      -0.019800
   1511 C1         12.3930  -22.9250    8.2330 c3       252 PE       0.039600
   1512 C2         11.1330  -23.0750    9.1230 c3       252 PE       0.039600
   1513 H11         9.8230  -22.1250    7.8330 hc       253 PE      -0.019800
   1514 H12         9.9530  -23.8950    7.5630 hc       253 PE      -0.019800
   1515 H21         8.3230  -22.5550    9.8430 hc       253 PE      -0.019800
   1516 H22         8.5830  -24.3350    9.6730 hc       253 PE      -0.019800
   1517 C1          9.8730  -23.1050    8.3230 c3       253 PE       0.039600
   1518 C2          8.5330  -23.3750    9.1530 c3       253 PE       0.039600
   1519 H11         7.2130  -22.4550    7.6830 hc       254 PE      -0.019800
   1520 H12         7.4830  -24.1050    7.3130 hc       254 PE      -0.019800
   1521 H21         5.9830  -23.1650    9.7330 hc       254 PE      -0.019800
   1522 H22         6.3030  -24.8350    9.3530 hc       254 PE      -0.019800
   1523 C1          7.3530  -23.4350    8.1630 c3       254 PE       0.039600
   1524 C2          6.1130  -23.8550    8.8930 c3       254 PE       0.039600
   1525 H11         4.8730  -23.0550    7.2830 hc       255 PE      -0.019800
   1526 H12         4.9630  -24.8350    7.3230 hc       255 PE      -0.019800
   1527 H21         3.6930  -22.9950    9.3330 hc       255 PE      -0.019800
   1528 H22         3.7430  -24.7150    9.6030 hc       255 PE      -0.019800
   1529 C1          4.8930  -23.9350    7.9430 c3       255 PE       0.039600
   1530 C2          3.6530  -23.9550    8.8130 c3       255 PE       0.039600
   1531 H11         2.3430  -23.3050    7.1530 hc       256 PE      -0.019800
   1532 H12         2.3730  -25.0050    7.4230 hc       256 PE      -0.019800
   1533 H21         1.1130  -22.8050    9.2530 hc       256 PE      -0.019800
   1534 H22         1.1930  -24.4450    9.7530 hc       256 PE      -0.019800
   1535 C1          2.4030  -24.0450    7.9630 c3       256 PE       0.039600
   1536 C2          1.1230  -23.8350    8.8530 c3       256 PE       0.039600
   1537 H11        -0.4170  -23.5250    7.3130 hc       257 PE      -0.019800
   1538 H12        -0.1470  -25.1250    7.6730 hc       257 PE      -0.019800
   1539 H21        -1.4670  -23.3250    9.7130 hc       257 PE      -0.019800
   1540 H22        -1.4070  -25.0350    9.9130 hc       257 PE      -0.019800
   1541 C1         -0.2070  -24.1550    8.1730 c3       257 PE       0.039600
   1542 C2         -1.4170  -24.2550    9.1430 c3       257 PE       0.039600
   1543 H11        -2.8570  -24.1150    7.4030 hc       258 PE      -0.019800
   1544 H12        -2.3970  -25.6250    7.9330 hc       258 PE      -0.019800
   1545 H21        -4.1370  -23.7550    9.7530 hc       258 PE      -0.019800
   1546 H22        -3.9270  -25.4450    9.9730 hc       258 PE      -0.019800
   1547 C1         -2.6670  -24.6450    8.3430 c3       258 PE       0.039600
   1548 C2         -4.0170  -24.6850    9.1830 c3       258 PE       0.039600
   1549 H11        -5.2770  -24.1150    7.5430 hc       259 PE      -0.019800
   1550 H12        -5.2570  -25.8150    7.7130 hc       259 PE      -0.019800
   1551 H21        -6.8870  -23.8950    9.5430 hc       259 PE      -0.019800
   1552 H22        -6.5970  -25.5950    9.9030 hc       259 PE      -0.019800
   1553 C1         -5.3170  -24.9050    8.3030 c3       259 PE       0.039600
   1554 C2         -6.6370  -24.8550    9.0930 c3       259 PE       0.039600
   1555 H11        -7.7070  -24.4850    7.3230 hc       260 PE      -0.019800
   1556 H12        -7.5870  -26.2450    7.8730 hc       260 PE      -0.019800
   1557 H21        -9.2170  -24.0850    9.2230 hc       260 PE      -0.019800
   1558 H22        -9.1570  -25.6950    9.6730 hc       260 PE      -0.019800
   1559 C1         -7.7970  -25.2050    8.1530 c3       260 PE       0.039600
   1560 C2         -9.1070  -25.0750    8.7730 c3       260 PE       0.039600
   1561 H11       -10.4170  -24.4250    7.1830 hc       261 PE      -0.019800
   1562 H12       -10.2470  -26.2250    7.2730 hc       261 PE      -0.019800
   1563 H21       -11.7570  -24.3350    9.2030 hc       261 PE      -0.019800
   1564 H22       -11.4570  -26.0850    9.5530 hc       261 PE      -0.019800
   1565 C1        -10.3870  -25.3050    7.8430 c3       261 PE       0.039600
   1566 C2        -11.5970  -25.3250    8.7730 c3       261 PE       0.039600
   1567 H11       -13.0270  -24.9050    7.1630 hc       262 PE      -0.019800
   1568 H12       -12.8470  -26.6150    7.3830 hc       262 PE      -0.019800
   1569 H21       -14.0270  -24.8750    9.6830 hc       262 PE      -0.019800
   1570 H22       -14.2970  -26.6050    9.1830 hc       262 PE      -0.019800
   1571 C1        -12.8870  -25.6650    7.9430 c3       262 PE       0.039600
   1572 C2        -14.1670  -25.5650    8.8430 c3       262 PE       0.039600
   1573 H11       -15.2170  -24.1450    7.5430 hc       263 PE      -0.019800
   1574 H12       -15.6370  -25.8650    7.3730 hc       263 PE      -0.019800
   1575 H21       -16.5770  -24.1450    9.6330 hc       263 PE      -0.019800
   1576 H22       -16.8270  -25.9150    9.6730 hc       263 PE      -0.019800
   1577 C1        -15.4370  -25.0650    8.1030 c3       263 PE       0.039600
   1578 C2        -16.7170  -25.0450    9.0230 c3       263 PE       0.039600
   1579 H11       -18.0570  -23.7950    7.7530 hc       264 PE      -0.019800
   1580 H12       -18.0970  -25.4850    7.4230 hc       264 PE      -0.019800
   1581 H21       -19.3570  -24.0650    9.8230 hc       264 PE      -0.019800
   1582 H22       -19.3370  -25.7750    9.6830 hc       264 PE      -0.019800
   1583 C1        -18.0970  -24.7650    8.2530 c3       264 PE       0.039600
   1584 C2        -19.3370  -24.8650    9.0730 c3       264 PE       0.039600
   1585 H11       -20.5970  -23.7750    7.5430 hc       265 PE      -0.019800
   1586 H12       -20.8570  -25.5150    7.5930 hc       265 PE      -0.019800
   1587 H21       -21.7870  -23.7550    9.8530 hc       265 PE      -0.019800
   1588 H22       -21.9670  -25.4750    9.6030 hc       265 PE      -0.019800
   1589 C1        -20.6170  -24.6450    8.2030 c3       265 PE       0.039600
   1590 C2        -21.8970  -24.5150    9.0730 c3       265 PE       0.039600
   1591 H11       -22.9670  -23.3450    7.5630 hc       266 PE      -0.019800
   1592 H12       -23.4970  -25.0150    7.7030 hc       266 PE      -0.019800
   1593 H21       -24.1770  -22.9450    9.7830 hc       266 PE      -0.019800
   1594 H22       -24.8270  -24.5050    9.6330 hc       266 PE      -0.019800
   1595 C1        -23.1670  -24.1450    8.2930 c3       266 PE       0.039600
   1596 C2        -24.4470  -23.6750    9.0230 c3       266 PE       0.039600
   1597 H11       -25.0570  -22.4850    7.3630 hc       267 PE      -0.019800
   1598 H12       -25.8270  -23.9950    7.5030 hc       267 PE      -0.019800
   1599 H21       -26.2470  -21.8150    9.6230 hc       267 PE      -0.019800
   1600 H22       -27.1670  -23.2750    9.4830 hc       267 PE      -0.019800
   1601 C1        -25.4970  -23.1450    8.1130 c3       267 PE       0.039600
   1602 C2        -26.6770  -22.5050    8.8830 c3       267 PE       0.039600
   1603 H11       -27.0770  -20.9750    7.4630 hc       268 PE      -0.019800
   1604 H12       -28.1470  -22.3550    7.1530 hc       268 PE      -0.019800
   1605 H21       -28.4270  -20.7350    9.7030 hc       268 PE      -0.019800
   1606 H22       -29.3870  -22.1550    9.1630 hc       268 PE      -0.019800
   1607 C1        -27.6270  -21.7950    7.9430 c3       268 PE       0.039600
   1608 C2        -28.8170  -21.2750    8.8330 c3       268 PE       0.039600
   1609 H11       -29.2570  -19.5450    7.5830 hc       269 PE      -0.019800
   1610 H12       -30.1670  -20.9250    7.2630 hc       269 PE      -0.019800
   1611 H21       -30.2970  -18.8650    9.5730 hc       269 PE      -0.019800
   1612 H22       -31.4470  -20.2150    9.7130 hc       269 PE      -0.019800
   1613 C1        -29.8070  -20.3350    8.1130 c3       269 PE       0.039600
   1614 C2        -30.8670  -19.6150    9.0030 c3       269 PE       0.039600
   1615 H11       -31.1470  -18.1950    7.5630 hc       270 PE      -0.019800
   1616 H12       -32.3270  -19.5050    7.3430 hc       270 PE      -0.019800
   1617 H21       -33.8770  -18.3350    8.9130 hc       270 PE      -0.019800
   1618 H22       -32.8970  -17.0250    8.4830 hc       270 PE      -0.019800
   1619 C1        -31.8370  -18.8650    8.0830 c3       270 PE       0.039600
   1620 C2        -32.8170  -18.0350    8.9030 c3       270 PE       0.039600
   1621 H11       -21.7970   34.5250    8.5430 hc       271 PE      -0.019800
   1622 H12       -20.7370   33.2050    8.8630 hc       271 PE      -0.019800
   1623 H21       -19.7470   35.4950    9.3830 hc       271 PE      -0.019800
   1624 H22       -19.8170   35.7950    7.5530 hc       271 PE      -0.019800
   1625 C1        -20.8570   34.0750    8.2030 c3       271 PE       0.039600
   1626 C2        -19.6870   35.0750    8.3630 c3       271 PE       0.039600
   1627 H11       -18.1370   33.6250    9.0630 hc       272 PE      -0.019800
   1628 H12       -18.2470   33.8150    7.2730 hc       272 PE      -0.019800
   1629 H21       -17.1570   36.1250    8.9530 hc       272 PE      -0.019800
   1630 H22       -17.2270   35.8150    7.1730 hc       272 PE      -0.019800
   1631 C1        -18.2970   34.3250    8.2430 c3       272 PE       0.039600
   1632 C2        -17.1470   35.3650    8.1730 c3       272 PE       0.039600
   1633 H11       -15.7170   34.3050    9.4030 hc       273 PE      -0.019800
   1634 H12       -15.5670   33.8950    7.7130 hc       273 PE      -0.019800
   1635 H21       -14.9370   36.7650    8.6530 hc       273 PE      -0.019800
   1636 H22       -14.5870   36.1350    7.1030 hc       273 PE      -0.019800
   1637 C1        -15.7670   34.7350    8.4030 c3       273 PE       0.039600
   1638 C2        -14.6470   35.8350    8.1530 c3       273 PE       0.039600
   1639 H11       -13.5470   34.9650    9.6430 hc       274 PE      -0.019800
   1640 H12       -13.0270   34.4850    8.0330 hc       274 PE      -0.019800
   1641 H21       -12.3770   37.1150    9.4830 hc       274 PE      -0.019800
   1642 H22       -12.2770   37.0950    7.7330 hc       274 PE      -0.019800
   1643 C1        -13.3070   35.3550    8.6430 c3       274 PE       0.039600
   1644 C2        -12.1770   36.4650    8.6330 c3       274 PE       0.039600
   1645 H11       -10.6370   35.2850    9.5930 hc       275 PE      -0.019800
   1646 H12       -10.5970   35.1650    7.8330 hc       275 PE      -0.019800
   1647 H21        -9.9270   37.5950    9.3230 hc       275 PE      -0.019800
   1648 H22        -9.7670   37.4550    7.5330 hc       275 PE      -0.019800
   1649 C1        -10.7670   35.8550    8.6730 c3       275 PE       0.039600
   1650 C2         -9.6770   36.9250    8.4930 c3       275 PE       0.039600
   1651 H11        -8.0970   35.8250    9.7030 hc       276 PE      -0.019800
   1652 H12        -8.1870   35.3650    8.0330 hc       276 PE      -0.019800
   1653 H21        -7.1170   37.9950    9.0030 hc       276 PE      -0.019800
   1654 H22        -7.4070   37.5950    7.3330 hc       276 PE      -0.019800
   1655 C1         -8.2670   36.2250    8.7030 c3       276 PE       0.039600
   1656 C2         -7.1070   37.1550    8.2930 c3       276 PE       0.039600
   1657 H11        -5.6170   35.9750    9.0730 hc       277 PE      -0.019800
   1658 H12        -5.7970   35.7650    7.2730 hc       277 PE      -0.019800
   1659 H21        -4.7470   38.3950    8.6230 hc       277 PE      -0.019800
   1660 H22        -4.4870   37.9450    6.9130 hc       277 PE      -0.019800
   1661 C1         -5.6970   36.4850    8.1030 c3       277 PE       0.039600
   1662 C2         -4.5770   37.5550    7.9430 c3       277 PE       0.039600
   1663 H11        -3.2670   36.3550    9.0330 hc       278 PE      -0.019800
   1664 H12        -2.9470   36.3350    7.3230 hc       278 PE      -0.019800
   1665 H21        -2.2270   38.3750    9.2730 hc       278 PE      -0.019800
   1666 H22        -2.2570   38.7350    7.4430 hc       278 PE      -0.019800
   1667 C1         -3.1970   37.0050    8.1530 c3       278 PE       0.039600
   1668 C2         -2.1370   37.9950    8.2430 c3       278 PE       0.039600
   1669 H11        -0.5070   36.4750    8.7830 hc       279 PE      -0.019800
   1670 H12        -0.5970   37.0250    7.0730 hc       279 PE      -0.019800
   1671 H21         0.1630   38.7650    9.2930 hc       279 PE      -0.019800
   1672 H22         0.4130   39.0450    7.5130 hc       279 PE      -0.019800
   1673 C1         -0.7270   37.3150    8.1230 c3       279 PE       0.039600
   1674 C2          0.4230   38.3050    8.3330 c3       279 PE       0.039600
   1675 H11         1.6630   36.7950    9.2030 hc       280 PE      -0.019800
   1676 H12         1.8730   37.0450    7.4530 hc       280 PE      -0.019800
   1677 H21         2.7830   39.0750    9.5530 hc       280 PE      -0.019800
   1678 H22         3.0930   39.1350    7.8130 hc       280 PE      -0.019800
   1679 C1          1.7530   37.5550    8.4130 c3       280 PE       0.039600
   1680 C2          3.0230   38.4650    8.6830 c3       280 PE       0.039600
   1681 H11         4.3330   37.2350    9.9030 hc       281 PE      -0.019800
   1682 H12         4.4830   37.0250    8.1030 hc       281 PE      -0.019800
   1683 H21         5.3930   39.5950    9.6730 hc       281 PE      -0.019800
   1684 H22         5.4830   39.3050    8.0130 hc       281 PE      -0.019800
   1685 C1          4.3330   37.7250    8.9330 c3       281 PE       0.039600
   1686 C2          5.5130   38.7650    8.9630 c3       281 PE       0.039600
   1687 H11         7.0630   37.5650    9.7630 hc       282 PE      -0.019800
   1688 H12         7.1430   37.3950    8.0930 hc       282 PE      -0.019800
   1689 H21         8.0030   39.9250    9.6430 hc       282 PE      -0.019800
   1690 H22         7.8830   39.9950    7.9430 hc       282 PE      -0.019800
   1691 C1          6.9830   38.1750    8.8530 c3       282 PE       0.039600
   1692 C2          8.0330   39.2750    8.7630 c3       282 PE       0.039600
   1693 H11         9.5430   37.9450    9.5130 hc       283 PE      -0.019800
   1694 H12         9.6630   38.0950    7.7630 hc       283 PE      -0.019800
   1695 H21        10.3930   40.1950    9.6730 hc       283 PE      -0.019800
   1696 H22        10.6130   40.2750    7.9330 hc       283 PE      -0.019800
   1697 C1          9.5030   38.6650    8.6930 c3       283 PE       0.039600
   1698 C2         10.6330   39.5950    8.7930 c3       283 PE       0.039600
   1699 H11        11.9230   38.0850    9.6630 hc       284 PE      -0.019800
   1700 H12        11.8630   38.1250    7.8730 hc       284 PE      -0.019800
   1701 H21        13.4330   40.1450    9.4930 hc       284 PE      -0.019800
   1702 H22        13.0830   40.1450    7.7030 hc       284 PE      -0.019800
   1703 C1         11.9130   38.7350    8.7730 c3       284 PE       0.039600
   1704 C2         13.2330   39.5350    8.6030 c3       284 PE       0.039600
   1705 H11        14.4830   37.8450    9.0130 hc       285 PE      -0.019800
   1706 H12        14.5530   38.3150    7.2630 hc       285 PE      -0.019800
   1707 H21        15.7730   39.9450    9.6630 hc       285 PE      -0.019800
   1708 H22        15.9330   40.2950    7.9130 hc       285 PE      -0.019800
   1709 C1         14.5030   38.6750    8.3030 c3       285 PE       0.039600
   1710 C2         15.8130   39.4950    8.6630 c3       285 PE       0.039600
   1711 H11        17.0530   37.8450    9.4730 hc       286 PE      -0.019800
   1712 H12        17.1330   38.0550    7.7130 hc       286 PE      -0.019800
   1713 H21        18.5330   39.7350    9.8130 hc       286 PE      -0.019800
   1714 H22        18.3630   40.3850    8.2430 hc       286 PE      -0.019800
   1715 C1         17.1030   38.5850    8.6630 c3       286 PE       0.039600
   1716 C2         18.3930   39.4250    8.7730 c3       286 PE       0.039600
   1717 H11        19.3630   38.3550    7.1330 hc       287 PE      -0.019800
   1718 H12        20.5230   39.1250    8.2830 hc       287 PE      -0.019800
   1719 H21        18.9430   36.7350    9.3830 hc       287 PE      -0.019800
   1720 H22        20.3930   37.5050    9.9530 hc       287 PE      -0.019800
   1721 C1         19.5830   38.5650    8.1830 c3       287 PE       0.039600
   1722 C2         19.8530   37.2350    9.0330 c3       287 PE       0.039600
   1723 H11        20.0630   35.9150    7.4230 hc       288 PE      -0.019800
   1724 H12        21.5230   36.6750    7.9530 hc       288 PE      -0.019800
   1725 H21        20.1530   34.6950    9.9230 hc       288 PE      -0.019800
   1726 H22        21.8530   35.0350    9.7730 hc       288 PE      -0.019800
   1727 C1         20.6230   36.1750    8.3230 c3       288 PE       0.039600
   1728 C2         20.9430   34.8750    9.1830 c3       288 PE       0.039600
   1729 H11        20.3330   33.6750    7.4930 hc       289 PE      -0.019800
   1730 H12        22.0830   33.7950    7.6930 hc       289 PE      -0.019800
   1731 H21        20.5330   32.3150    9.8630 hc       289 PE      -0.019800
   1732 H22        22.1630   32.4350    9.5530 hc       289 PE      -0.019800
   1733 C1         21.1330   33.6750    8.2430 c3       289 PE       0.039600
   1734 C2         21.2230   32.3550    9.0030 c3       289 PE       0.039600
   1735 H11        20.3430   30.9650    7.4630 hc       290 PE      -0.019800
   1736 H12        22.1130   31.0650    7.5630 hc       290 PE      -0.019800
   1737 H21        20.4030   29.7050    9.6930 hc       290 PE      -0.019800
   1738 H22        22.2130   29.7750    9.6030 hc       290 PE      -0.019800
   1739 C1         21.1930   31.0450    8.1530 c3       290 PE       0.039600
   1740 C2         21.2830   29.7750    9.0330 c3       290 PE       0.039600
   1741 H11        20.4630   28.5050    7.4630 hc       291 PE      -0.019800
   1742 H12        22.1830   28.3250    7.6330 hc       291 PE      -0.019800
   1743 H21        20.1030   27.3050    9.5930 hc       291 PE      -0.019800
   1744 H22        21.7930   26.9150    9.7330 hc       291 PE      -0.019800
   1745 C1         21.2530   28.4350    8.2130 c3       291 PE       0.039600
   1746 C2         21.0130   27.1350    8.9930 c3       291 PE       0.039600
   1747 H11        19.6530   26.0450    7.6630 hc       292 PE      -0.019800
   1748 H12        21.4330   25.9650    7.3030 hc       292 PE      -0.019800
   1749 H21        19.9930   24.6050    9.5730 hc       292 PE      -0.019800
   1750 H22        21.7530   24.3550    9.2130 hc       292 PE      -0.019800
   1751 C1         20.6530   25.9050    8.0830 c3       292 PE       0.039600
   1752 C2         20.7530   24.5450    8.7930 c3       292 PE       0.039600
   1753 H11        19.3530   23.3350    7.6530 hc       293 PE      -0.019800
   1754 H12        20.9730   23.2550    7.1130 hc       293 PE      -0.019800
   1755 H21        19.7630   22.0950    9.7330 hc       293 PE      -0.019800
   1756 H22        21.5030   21.8650    9.2230 hc       293 PE      -0.019800
   1757 C1         20.3830   23.2750    8.0330 c3       293 PE       0.039600
   1758 C2         20.4730   22.0150    8.8930 c3       293 PE       0.039600
   1759 H11        19.3230   20.9550    7.4030 hc       294 PE      -0.019800
   1760 H12        20.9230   20.4150    7.3730 hc       294 PE      -0.019800
   1761 H21        19.0130   19.6050    9.5930 hc       294 PE      -0.019800
   1762 H22        20.7430   19.3650    9.5330 hc       294 PE      -0.019800
   1763 C1         20.1430   20.6850    8.0830 c3       294 PE       0.039600
   1764 C2         19.8530   19.4450    8.9030 c3       294 PE       0.039600
   1765 H11        18.8030   18.0950    7.4630 hc       295 PE      -0.019800
   1766 H12        20.5530   18.0050    7.4030 hc       295 PE      -0.019800
   1767 H21        18.9730   17.3650    9.9430 hc       295 PE      -0.019800
   1768 H22        20.6530   16.9150    9.4930 hc       295 PE      -0.019800
   1769 C1         19.7030   18.1550    8.0830 c3       295 PE       0.039600
   1770 C2         19.6330   17.0650    9.1130 c3       295 PE       0.039600
   1771 H11        19.8830   15.3650    7.7830 hc       296 PE      -0.019800
   1772 H12        19.6230   14.8350    9.3130 hc       296 PE      -0.019800
   1773 H21        17.4530   15.9850    7.5730 hc       296 PE      -0.019800
   1774 H22        17.1530   15.7650    9.3630 hc       296 PE      -0.019800
   1775 C1         19.2630   15.6250    8.6430 c3       296 PE       0.039600
   1776 C2         17.7230   15.4350    8.4830 c3       296 PE       0.039600
   1777 H11        18.2430   13.4650    7.7230 hc       297 PE      -0.019800
   1778 H12        17.2330   13.4650    9.1030 hc       297 PE      -0.019800
   1779 H21        16.1130   14.7450    6.5730 hc       297 PE      -0.019800
   1780 H22        15.2830   14.2250    7.8530 hc       297 PE      -0.019800
   1781 C1         17.3630   13.9750    8.1430 c3       297 PE       0.039600
   1782 C2         16.1330   13.8850    7.2430 c3       297 PE       0.039600
   1783 H11        16.6930   11.9550    6.2630 hc       298 PE      -0.019800
   1784 H12        15.5230   11.7950    7.4930 hc       298 PE      -0.019800
   1785 H21        14.7230   11.5550    5.0330 hc       298 PE      -0.019800
   1786 H22        14.7530   13.2850    4.8730 hc       298 PE      -0.019800
   1787 C1         15.7930   12.4450    6.6530 c3       298 PE       0.039600
   1788 C2         14.6130   12.4850    5.6130 c3       298 PE       0.039600
   1789 H11        13.2230   11.5250    6.8730 hc       299 PE      -0.019800
   1790 H12        13.0330   13.3250    6.8830 hc       299 PE      -0.019800
   1791 H21        12.1930   11.2150    4.6630 hc       299 PE      -0.019800
   1792 H22        12.2530   12.9250    4.3830 hc       299 PE      -0.019800
   1793 C1         13.2030   12.4350    6.2630 c3       299 PE       0.039600
   1794 C2         12.1030   12.1750    5.1830 c3       299 PE       0.039600
   1795 H11        10.0030   11.7450    5.1830 hc       300 PE      -0.019800
   1796 H12        10.7430   11.8450    6.7730 hc       300 PE      -0.019800
   1797 H21         9.2730   13.7950    6.2930 hc       300 PE      -0.019800
   1798 H22        10.9230   14.2150    6.7430 hc       300 PE      -0.019800
   1799 C1         10.7330   12.3050    5.7730 c3       300 PE       0.039600
   1800 C2         10.3130   13.7850    5.9430 c3       300 PE       0.039600
   1801 H11        -5.0270  -13.9550    1.5430 hc       301 PE      -0.019800
   1802 H12        -3.2270  -13.8050    1.6130 hc       301 PE      -0.019800
   1803 H21        -4.5270  -15.8450   -0.3570 hc       301 PE      -0.019800
   1804 H22        -3.8670  -16.1950    1.2530 hc       301 PE      -0.019800
   1805 C1         -4.0870  -14.1150    1.0030 c3       301 PE       0.039600
   1806 C2         -3.7870  -15.5250    0.3930 c3       301 PE       0.039600
   1807 H11        -2.4970  -16.6550   -0.8470 hc       302 PE      -0.019800
   1808 H12        -2.3270  -14.9050   -1.1270 hc       302 PE      -0.019800
   1809 H21        -1.0670  -16.5050    1.1630 hc       302 PE      -0.019800
   1810 H22        -1.1370  -14.7650    1.2430 hc       302 PE      -0.019800
   1811 C1         -2.4370  -15.6750   -0.3570 c3       302 PE       0.039600
   1812 C2         -1.1270  -15.6050    0.5330 c3       302 PE       0.039600
   1813 H11         0.2630  -16.2950   -0.9870 hc       303 PE      -0.019800
   1814 H12        -0.0070  -14.6350   -1.0970 hc       303 PE      -0.019800
   1815 H21         1.6230  -16.0450    1.2430 hc       303 PE      -0.019800
   1816 H22         1.4430  -14.2850    1.0530 hc       303 PE      -0.019800
   1817 C1          0.1330  -15.4150   -0.3370 c3       303 PE       0.039600
   1818 C2          1.4730  -15.2450    0.5130 c3       303 PE       0.039600
   1819 H11         2.9430  -16.1550   -0.7970 hc       304 PE      -0.019800
   1820 H12         2.4330  -14.5050   -1.1470 hc       304 PE      -0.019800
   1821 H21         4.0130  -15.1850    1.4830 hc       304 PE      -0.019800
   1822 H22         3.7030  -13.6550    0.7330 hc       304 PE      -0.019800
   1823 C1          2.6930  -15.1850   -0.3370 c3       304 PE       0.039600
   1824 C2          3.8930  -14.7150    0.5030 c3       304 PE       0.039600
   1825 H11         5.3330  -15.6750   -0.8670 hc       305 PE      -0.019800
   1826 H12         4.9230  -13.9450   -1.1670 hc       305 PE      -0.019800
   1827 H21         6.4730  -14.6550    1.3530 hc       305 PE      -0.019800
   1828 H22         6.2530  -13.2250    0.5030 hc       305 PE      -0.019800
   1829 C1          5.1730  -14.6950   -0.4070 c3       305 PE       0.039600
   1830 C2          6.4430  -14.2950    0.3230 c3       305 PE       0.039600
   1831 H11         7.9030  -15.6250   -0.3670 hc       306 PE      -0.019800
   1832 H12         7.8930  -13.9850   -1.2670 hc       306 PE      -0.019800
   1833 H21         9.0630  -14.8050    1.3330 hc       306 PE      -0.019800
   1834 H22         8.5130  -13.0750    0.9230 hc       306 PE      -0.019800
   1835 C1          7.8130  -14.5350   -0.3270 c3       306 PE       0.039600
   1836 C2          8.9030  -14.0350    0.5630 c3       306 PE       0.039600
   1837 H11        10.4230  -14.7850   -0.6970 hc       307 PE      -0.019800
   1838 H12        10.1330  -13.1850   -1.0870 hc       307 PE      -0.019800
   1839 H21        11.4130  -13.8750    1.5830 hc       307 PE      -0.019800
   1840 H22        11.1930  -12.2750    1.0130 hc       307 PE      -0.019800
   1841 C1         10.2030  -13.8350   -0.1970 c3       307 PE       0.039600
   1842 C2         11.4030  -13.2950    0.6530 c3       307 PE       0.039600
   1843 H11        12.7930  -14.4850   -0.3670 hc       308 PE      -0.019800
   1844 H12        12.7430  -12.9750   -1.1570 hc       308 PE      -0.019800
   1845 H21        13.9730  -13.6750    1.4730 hc       308 PE      -0.019800
   1846 H22        13.9030  -11.9250    0.8730 hc       308 PE      -0.019800
   1847 C1         12.7630  -13.4050   -0.1470 c3       308 PE       0.039600
   1848 C2         13.9330  -12.9950    0.6130 c3       308 PE       0.039600
   1849 H11        15.4130  -14.1150   -0.3070 hc       309 PE      -0.019800
   1850 H12        14.9730  -12.4950   -1.0670 hc       309 PE      -0.019800
   1851 H21        16.8030  -12.9450    1.4030 hc       309 PE      -0.019800
   1852 H22        16.2330  -11.4050    0.9730 hc       309 PE      -0.019800
   1853 C1         15.2730  -13.0350   -0.1670 c3       309 PE       0.039600
   1854 C2         16.4530  -12.3750    0.5230 c3       309 PE       0.039600
   1855 H11        17.8530  -13.4550   -0.4970 hc       310 PE      -0.019800
   1856 H12        17.5330  -11.8650   -1.3170 hc       310 PE      -0.019800
   1857 H21        19.0930  -12.1050    1.3030 hc       310 PE      -0.019800
   1858 H22        18.5430  -10.6050    0.4430 hc       310 PE      -0.019800
   1859 C1         17.7030  -12.3750   -0.3570 c3       310 PE       0.039600
   1860 C2         18.8930  -11.6450    0.3330 c3       310 PE       0.039600
   1861 H11        20.4930  -12.7650   -0.7970 hc       311 PE      -0.019800
   1862 H12        20.0630  -11.3050   -1.4070 hc       311 PE      -0.019800
   1863 H21        21.3730  -11.7650    1.4230 hc       311 PE      -0.019800
   1864 H22        21.1430  -10.1750    0.6730 hc       311 PE      -0.019800
   1865 C1         20.2030  -11.7750   -0.4270 c3       311 PE       0.039600
   1866 C2         21.3730  -11.2250    0.4730 c3       311 PE       0.039600
   1867 H11        22.8830  -12.5950   -0.1170 hc       312 PE      -0.019800
   1868 H12        22.7530  -11.1650   -1.1970 hc       312 PE      -0.019800
   1869 H21        24.0730  -11.3850    1.5130 hc       312 PE      -0.019800
   1870 H22        23.6730   -9.7950    0.8730 hc       312 PE      -0.019800
   1871 C1         22.7430  -11.5150   -0.1570 c3       312 PE       0.039600
   1872 C2         23.9530  -10.8150    0.5830 c3       312 PE       0.039600
   1873 H11        25.3930  -12.0050   -0.4870 hc       313 PE      -0.019800
   1874 H12        25.1430  -10.3650   -1.0970 hc       313 PE      -0.019800
   1875 H21        26.7930  -10.9150    1.4230 hc       313 PE      -0.019800
   1876 H22        26.0730   -9.3250    0.8430 hc       313 PE      -0.019800
   1877 C1         25.2330  -10.9650   -0.1870 c3       313 PE       0.039600
   1878 C2         26.4830  -10.3050    0.5630 c3       313 PE       0.039600
   1879 H11        28.1230  -11.1750   -0.6670 hc       314 PE      -0.019800
   1880 H12        27.7030   -9.6650   -1.2570 hc       314 PE      -0.019800
   1881 H21        29.0930  -10.3650    1.3830 hc       314 PE      -0.019800
   1882 H22        28.8730   -8.6550    0.9230 hc       314 PE      -0.019800
   1883 C1         27.8230  -10.1850   -0.2970 c3       314 PE       0.039600
   1884 C2         29.0530   -9.6650    0.5430 c3       314 PE       0.039600
   1885 H11        30.5830  -10.4950   -0.6570 hc       315 PE      -0.019800
   1886 H12        30.2030   -8.9450   -1.2270 hc       315 PE      -0.019800
   1887 H21        31.6430   -9.4950    1.4830 hc       315 PE      -0.019800
   1888 H22        31.1330   -7.9950    1.0230 hc       315 PE      -0.019800
   1889 C1         30.2930   -9.5050   -0.2870 c3       315 PE       0.039600
   1890 C2         31.4230   -8.9450    0.5630 c3       315 PE       0.039600
   1891 H11        33.1530   -9.6750   -0.4670 hc       316 PE      -0.019800
   1892 H12        32.6030   -8.1250   -1.1170 hc       316 PE      -0.019800
   1893 H21        34.3530   -8.5050    1.3430 hc       316 PE      -0.019800
   1894 H22        33.5630   -6.9950    0.8530 hc       316 PE      -0.019800
   1895 C1         32.7730   -8.6850   -0.1970 c3       316 PE       0.039600
   1896 C2         33.9030   -7.9750    0.4930 c3       316 PE       0.039600
   1897 H11        35.2930   -8.4150   -1.1770 hc       317 PE      -0.019800
   1898 H12        34.9030   -6.8150   -1.2970 hc       317 PE      -0.019800
   1899 H21        36.5330   -7.8850    1.1830 hc       317 PE      -0.019800
   1900 H22        35.8930   -6.2550    1.0230 hc       317 PE      -0.019800
   1901 C1         35.0530   -7.5750   -0.5170 c3       317 PE       0.039600
   1902 C2         36.2030   -7.1350    0.4530 c3       317 PE       0.039600
   1903 H11        37.8330   -7.5250   -0.8770 hc       318 PE      -0.019800
   1904 H12        37.3130   -5.7950   -1.0070 hc       318 PE      -0.019800
   1905 H21        38.6930   -6.9250    1.4930 hc       318 PE      -0.019800
   1906 H22        38.5330   -5.2250    1.0630 hc       318 PE      -0.019800
   1907 C1         37.4930   -6.6350   -0.3370 c3       318 PE       0.039600
   1908 C2         38.6430   -6.2350    0.6430 c3       318 PE       0.039600
   1909 H11       -39.8070   -7.2350   -0.4570 hc       319 PE      -0.019800
   1910 H12       -40.0370   -5.5850   -1.0270 hc       319 PE      -0.019800
   1911 H21       -38.6070   -6.5150    1.4730 hc       319 PE      -0.019800
   1912 H22       -38.8470   -4.8450    1.1230 hc       319 PE      -0.019800
   1913 C1        -39.9770   -6.2050   -0.1270 c3       319 PE       0.039600
   1914 C2        -38.7370   -5.8250    0.6330 c3       319 PE       0.039600
   1915 H11       -37.2070   -6.6950   -0.7970 hc       320 PE      -0.019800
   1916 H12       -37.5170   -5.0650   -1.0770 hc       320 PE      -0.019800
   1917 H21       -35.8170   -6.2550    1.3030 hc       320 PE      -0.019800
   1918 H22       -36.3170   -4.5950    1.2930 hc       320 PE      -0.019800
   1919 C1        -37.3870   -5.7650   -0.2470 c3       320 PE       0.039600
   1920 C2        -36.1170   -5.4450    0.6230 c3       320 PE       0.039600
   1921 H11       -34.7170   -5.9750   -0.8870 hc       321 PE      -0.019800
   1922 H12       -35.1770   -4.2850   -0.9170 hc       321 PE      -0.019800
   1923 H21       -33.3870   -5.7050    1.1330 hc       321 PE      -0.019800
   1924 H22       -33.9770   -4.0750    1.4930 hc       321 PE      -0.019800
   1925 C1        -34.9370   -5.1150   -0.2470 c3       321 PE       0.039600
   1926 C2        -33.7170   -4.7650    0.6730 c3       321 PE       0.039600
   1927 H11       -32.0470   -4.8450   -0.8270 hc       322 PE      -0.019800
   1928 H12       -32.7370   -3.2550   -0.5970 hc       322 PE      -0.019800
   1929 H21       -31.7470   -2.8650    1.3930 hc       322 PE      -0.019800
   1930 H22       -30.4570   -3.3350    0.2130 hc       322 PE      -0.019800
   1931 C1        -32.4570   -4.1650   -0.0670 c3       322 PE       0.039600
   1932 C2        -31.2770   -3.6850    0.8430 c3       322 PE       0.039600
   1933 H11       -31.6970   -5.1150    2.5230 hc       323 PE      -0.019800
   1934 H12       -30.3770   -5.6850    1.4530 hc       323 PE      -0.019800
   1935 H21       -29.9870   -3.1450    3.1630 hc       323 PE      -0.019800
   1936 H22       -28.8570   -4.2750    2.5030 hc       323 PE      -0.019800
   1937 C1        -30.8270   -4.8050    1.9230 c3       323 PE       0.039600
   1938 C2        -29.8670   -4.2150    2.9430 c3       323 PE       0.039600
   1939 H11       -30.7770   -4.9650    4.7230 hc       324 PE      -0.019800
   1940 H12       -29.4570   -5.9750    4.1030 hc       324 PE      -0.019800
   1941 H21       -29.3870   -3.3250    5.7830 hc       324 PE      -0.019800
   1942 H22       -27.9570   -3.9250    4.9330 hc       324 PE      -0.019800
   1943 C1        -29.7770   -4.9350    4.2830 c3       324 PE       0.039600
   1944 C2        -28.9070   -4.2350    5.3830 c3       324 PE       0.039600
   1945 H11       -28.3070   -6.1650    6.0730 hc       325 PE      -0.019800
   1946 H12       -27.7070   -4.9050    7.0930 hc       325 PE      -0.019800
   1947 H21       -30.7570   -5.7550    6.7430 hc       325 PE      -0.019800
   1948 H22       -30.1970   -4.8650    8.0730 hc       325 PE      -0.019800
   1949 C1        -28.6070   -5.2150    6.5430 c3       325 PE       0.039600
   1950 C2        -29.8570   -5.6350    7.3630 c3       325 PE       0.039600
   1951 H11       -28.8070   -6.6850    8.8430 hc       326 PE      -0.019800
   1952 H12       -30.5570   -6.9450    9.0130 hc       326 PE      -0.019800
   1953 H21       -28.7570   -8.2150    6.8330 hc       326 PE      -0.019800
   1954 H22       -30.5270   -8.4050    7.0030 hc       326 PE      -0.019800
   1955 C1        -29.7270   -6.9150    8.3030 c3       326 PE       0.039600
   1956 C2        -29.5870   -8.2550    7.5430 c3       326 PE       0.039600
   1957 H11       -28.2470   -9.4050    8.6930 hc       327 PE      -0.019800
   1958 H12       -29.8070   -9.0850    9.3930 hc       327 PE      -0.019800
   1959 H21       -29.1870  -11.5650    8.3230 hc       327 PE      -0.019800
   1960 H22       -29.6670  -10.7350    6.8630 hc       327 PE      -0.019800
   1961 C1        -29.3170   -9.4050    8.4630 c3       327 PE       0.039600
   1962 C2        -29.7970  -10.7350    7.9530 c3       327 PE       0.039600
   1963 H11       -31.5070  -11.1650    9.2830 hc       328 PE      -0.019800
   1964 H12       -31.8570  -10.2450    7.8030 hc       328 PE      -0.019800
   1965 H21       -31.1970  -13.2250    7.9630 hc       328 PE      -0.019800
   1966 H22       -31.2370  -12.4350    6.4630 hc       328 PE      -0.019800
   1967 C1        -31.2570  -11.0650    8.2130 c3       328 PE       0.039600
   1968 C2        -31.6870  -12.3850    7.4530 c3       328 PE       0.039600
   1969 H11       -33.5070  -12.6850    8.4930 hc       329 PE      -0.019800
   1970 H12       -33.6970  -11.9750    6.7830 hc       329 PE      -0.019800
   1971 H21       -32.8370  -14.8550    7.4030 hc       329 PE      -0.019800
   1972 H22       -33.1670  -14.1450    5.8330 hc       329 PE      -0.019800
   1973 C1        -33.1970  -12.6950    7.4430 c3       329 PE       0.039600
   1974 C2        -33.4470  -14.0950    6.8930 c3       329 PE       0.039600
   1975 H11       -35.2470  -14.3250    7.9730 hc       330 PE      -0.019800
   1976 H12       -35.4670  -14.2050    6.1430 hc       330 PE      -0.019800
   1977 H21       -35.8070  -16.5450    6.3530 hc       330 PE      -0.019800
   1978 H22       -34.1170  -16.4550    6.1130 hc       330 PE      -0.019800
   1979 C1        -34.8870  -14.6250    6.9730 c3       330 PE       0.039600
   1980 C2        -34.8970  -16.1750    6.8330 c3       330 PE       0.039600
   1981 H11       -39.0270   31.0650    4.7330 hc       331 PE      -0.019800
   1982 H12       -39.9870   32.4850    4.7930 hc       331 PE      -0.019800
   1983 H21       -37.9770   33.6950    3.7230 hc       331 PE      -0.019800
   1984 H22       -38.7870   32.3350    2.7930 hc       331 PE      -0.019800
   1985 C1        -38.9470   32.1550    4.8930 c3       331 PE       0.039600
   1986 C2        -38.1770   32.6150    3.6530 c3       331 PE       0.039600
   1987 H11       -36.0770   32.3750    4.4230 hc       332 PE      -0.019800
   1988 H12       -36.8770   30.9450    3.8330 hc       332 PE      -0.019800
   1989 H21       -36.3970   33.3450    1.9030 hc       332 PE      -0.019800
   1990 H22       -36.4770   31.7250    1.3930 hc       332 PE      -0.019800
   1991 C1        -36.7070   32.0050    3.6030 c3       332 PE       0.039600
   1992 C2        -36.0470   32.3450    2.1930 c3       332 PE       0.039600
   1993 H11       -34.0770   32.9550    2.9830 hc       333 PE      -0.019800
   1994 H12       -34.3370   31.2150    2.5530 hc       333 PE      -0.019800
   1995 H21       -34.4170   33.5150    0.5430 hc       333 PE      -0.019800
   1996 H22       -34.2170   31.7850    0.1130 hc       333 PE      -0.019800
   1997 C1        -34.5170   32.2550    2.2530 c3       333 PE       0.039600
   1998 C2        -33.9570   32.5650    0.8430 c3       333 PE       0.039600
   1999 H11       -32.3270   33.2650   -0.2470 hc       334 PE      -0.019800
   2000 H12       -32.1170   33.6250    1.4630 hc       334 PE      -0.019800
   2001 H21       -32.1070   30.7050    0.5530 hc       334 PE      -0.019800
   2002 H22       -31.6370   31.5050    2.1030 hc       334 PE      -0.019800
   2003 C1        -32.4270   32.8450    0.7630 c3       334 PE       0.039600
   2004 C2        -31.6770   31.6050    1.0130 c3       334 PE       0.039600
   2005 H11       -30.1870   32.3850   -0.3270 hc       335 PE      -0.019800
   2006 H12       -29.7170   32.3850    1.3430 hc       335 PE      -0.019800
   2007 H21       -29.8270   29.7250   -0.3970 hc       335 PE      -0.019800
   2008 H22       -29.6370   29.9150    1.2830 hc       335 PE      -0.019800
   2009 C1        -30.1770   31.7550    0.5730 c3       335 PE       0.039600
   2010 C2        -29.4170   30.4250    0.3430 c3       335 PE       0.039600
   2011 H11       -27.7070   31.0850   -0.7970 hc       336 PE      -0.019800
   2012 H12       -27.3970   31.1850    0.9630 hc       336 PE      -0.019800
   2013 H21       -27.4670   28.7250   -0.7370 hc       336 PE      -0.019800
   2014 H22       -27.3670   28.6550    1.0530 hc       336 PE      -0.019800
   2015 C1        -27.8270   30.5650    0.1630 c3       336 PE       0.039600
   2016 C2        -27.0570   29.1950    0.1630 c3       336 PE       0.039600
   2017 H11       -25.1670   29.7650   -0.7770 hc       337 PE      -0.019800
   2018 H12       -25.1670   29.9850    0.9830 hc       337 PE      -0.019800
   2019 H21       -25.3670   27.3250   -0.5570 hc       337 PE      -0.019800
   2020 H22       -24.9670   27.4050    1.1330 hc       337 PE      -0.019800
   2021 C1        -25.5070   29.3350    0.1730 c3       337 PE       0.039600
   2022 C2        -24.8370   27.9350    0.1830 c3       337 PE       0.039600
   2023 H11       -23.4570   28.1450   -1.3970 hc       338 PE      -0.019800
   2024 H12       -22.9570   28.9350    0.0630 hc       338 PE      -0.019800
   2025 H21       -23.1870   25.8650   -0.1970 hc       338 PE      -0.019800
   2026 H22       -22.5470   26.8150    1.1230 hc       338 PE      -0.019800
   2027 C1        -23.4270   28.0150   -0.3170 c3       338 PE       0.039600
   2028 C2        -22.5970   26.7650    0.0230 c3       338 PE       0.039600
   2029 H11       -21.4270   26.4050   -1.6470 hc       339 PE      -0.019800
   2030 H12       -20.7370   27.6750   -0.6470 hc       339 PE      -0.019800
   2031 H21       -20.9270   24.7450    0.3130 hc       339 PE      -0.019800
   2032 H22       -20.0970   26.0950    1.1030 hc       339 PE      -0.019800
   2033 C1        -21.2170   26.6950   -0.6070 c3       339 PE       0.039600
   2034 C2        -20.3170   25.6450    0.1330 c3       339 PE       0.039600
   2035 H11       -19.4370   24.7350   -1.5970 hc       340 PE      -0.019800
   2036 H12       -18.5370   26.1350   -1.0870 hc       340 PE      -0.019800
   2037 H21       -18.4770   23.4950    0.5630 hc       340 PE      -0.019800
   2038 H22       -17.8970   25.0050    1.0930 hc       340 PE      -0.019800
   2039 C1        -19.1070   25.2750   -0.7070 c3       340 PE       0.039600
   2040 C2        -18.0670   24.4450    0.1730 c3       340 PE       0.039600
   2041 H11       -16.9770   23.6750   -1.5570 hc       341 PE      -0.019800
   2042 H12       -16.2970   25.0850   -1.0870 hc       341 PE      -0.019800
   2043 H21       -16.3670   22.6450    0.5830 hc       341 PE      -0.019800
   2044 H22       -15.4370   24.0750    1.0330 hc       341 PE      -0.019800
   2045 C1        -16.8170   24.2450   -0.6270 c3       341 PE       0.039600
   2046 C2        -15.8370   23.5150    0.1730 c3       341 PE       0.039600
   2047 H11       -15.3770   22.1650   -1.4870 hc       342 PE      -0.019800
   2048 H12       -14.2370   23.5450   -1.2870 hc       342 PE      -0.019800
   2049 H21       -14.3970   21.4050    0.8430 hc       342 PE      -0.019800
   2050 H22       -13.1770   22.7050    0.6530 hc       342 PE      -0.019800
   2051 C1        -14.8470   22.7950   -0.7670 c3       342 PE       0.039600
   2052 C2        -13.7970   21.9750    0.1230 c3       342 PE       0.039600
   2053 H11       -13.6070   20.1550   -1.1170 hc       343 PE      -0.019800
   2054 H12       -12.4570   21.5250   -1.4670 hc       343 PE      -0.019800
   2055 H21       -12.4070   19.9450    1.1830 hc       343 PE      -0.019800
   2056 H22       -11.2170   21.1050    0.7330 hc       343 PE      -0.019800
   2057 C1        -12.9670   20.9350   -0.6970 c3       343 PE       0.039600
   2058 C2        -11.8970   20.3550    0.3030 c3       343 PE       0.039600
   2059 H11       -11.8470   18.4550   -0.8370 hc       344 PE      -0.019800
   2060 H12       -10.8770   19.6150   -1.4770 hc       344 PE      -0.019800
   2061 H21       -10.5470   18.0750    1.1630 hc       344 PE      -0.019800
   2062 H22        -9.4270   19.5350    0.8030 hc       344 PE      -0.019800
   2063 C1        -11.1470   19.2350   -0.4870 c3       344 PE       0.039600
   2064 C2        -10.0170   18.6950    0.4230 c3       344 PE       0.039600
   2065 H11        -9.7070   17.1050   -0.9470 hc       345 PE      -0.019800
   2066 H12        -8.5070   18.2350   -1.1370 hc       345 PE      -0.019800
   2067 H21        -8.8270   16.2750    1.1330 hc       345 PE      -0.019800
   2068 H22        -7.7170   17.6250    1.3030 hc       345 PE      -0.019800
   2069 C1         -9.1070   17.7850   -0.3370 c3       345 PE       0.039600
   2070 C2         -8.1970   16.9650    0.5730 c3       345 PE       0.039600
   2071 H11        -6.5870   16.8650   -0.8770 hc       346 PE      -0.019800
   2072 H12        -6.1970   15.8250    0.4030 hc       346 PE      -0.019800
   2073 H21        -6.9970   14.9250   -1.9670 hc       346 PE      -0.019800
   2074 H22        -8.6770   15.1950   -1.3970 hc       346 PE      -0.019800
   2075 C1         -7.0570   16.1550   -0.1870 c3       346 PE       0.039600
   2076 C2         -7.6370   15.0050   -1.0870 c3       346 PE       0.039600
   2077 H11        -6.5170   13.3450   -0.2570 hc       347 PE      -0.019800
   2078 H12        -7.9070   13.7850    0.7330 hc       347 PE      -0.019800
   2079 H21        -7.9870   12.5350   -2.0570 hc       347 PE      -0.019800
   2080 H22        -9.3570   12.6750   -0.8870 hc       347 PE      -0.019800
   2081 C1         -7.5770   13.6450   -0.2970 c3       347 PE       0.039600
   2082 C2         -8.2770   12.4850   -0.9970 c3       347 PE       0.039600
   2083 H11        -6.9770   10.8150   -0.5870 hc       348 PE      -0.019800
   2084 H12        -8.0970   11.1550    0.6530 hc       348 PE      -0.019800
   2085 H21        -8.9870   10.1750   -2.2170 hc       348 PE      -0.019800
   2086 H22       -10.0370   10.1750   -0.7970 hc       348 PE      -0.019800
   2087 C1         -8.0170   11.1150   -0.4370 c3       348 PE       0.039600
   2088 C2         -8.9970   10.0550   -1.1270 c3       348 PE       0.039600
   2089 H11        -7.6570    8.4950   -1.6270 hc       349 PE      -0.019800
   2090 H12        -7.8870    8.5850    0.0730 hc       349 PE      -0.019800
   2091 H21       -10.2270    7.5750   -0.1670 hc       349 PE      -0.019800
   2092 H22        -8.9470    6.6150   -0.9270 hc       349 PE      -0.019800
   2093 C1         -8.4370    8.6350   -0.8770 c3       349 PE       0.039600
   2094 C2         -9.4870    7.5650   -0.9870 c3       349 PE       0.039600
   2095 H11       -10.8570    8.6550   -2.3270 hc       350 PE      -0.019800
   2096 H12        -9.7770    7.7050   -3.1870 hc       350 PE      -0.019800
   2097 H21       -11.9870    6.6350   -1.3970 hc       350 PE      -0.019800
   2098 H22       -10.7970    5.5950   -2.2670 hc       350 PE      -0.019800
   2099 C1        -10.3770    7.6750   -2.2670 c3       350 PE       0.039600
   2100 C2        -11.3370    6.5550   -2.2670 c3       350 PE       0.039600
   2101 H11       -12.8070    7.6450   -3.4870 hc       351 PE      -0.019800
   2102 H12       -11.7070    6.5450   -4.3770 hc       351 PE      -0.019800
   2103 H21       -14.1570    6.0150   -4.2070 hc       351 PE      -0.019800
   2104 H22       -13.9670    5.6550   -2.4570 hc       351 PE      -0.019800
   2105 C1        -12.2670    6.6850   -3.4370 c3       351 PE       0.039600
   2106 C2        -13.4470    5.7050   -3.4270 c3       351 PE       0.039600
   2107 H11       -12.4570    4.1150   -4.5970 hc       352 PE      -0.019800
   2108 H12       -12.4470    3.9850   -2.8270 hc       352 PE      -0.019800
   2109 H21       -14.9470    3.5250   -4.4170 hc       352 PE      -0.019800
   2110 H22       -14.7470    3.4050   -2.7170 hc       352 PE      -0.019800
   2111 C1        -13.0670    4.2450   -3.6970 c3       352 PE       0.039600
   2112 C2        -14.2070    3.2650   -3.6570 c3       352 PE       0.039600
   2113 H11       -13.4870    1.8150   -4.9670 hc       353 PE      -0.019800
   2114 H12       -12.8970    1.6650   -3.2770 hc       353 PE      -0.019800
   2115 H21       -15.4870    0.9150   -4.8170 hc       353 PE      -0.019800
   2116 H22       -15.5370    0.9250   -3.0670 hc       353 PE      -0.019800
   2117 C1        -13.7770    1.8350   -3.9070 c3       353 PE       0.039600
   2118 C2        -14.8670    0.7750   -3.9170 c3       353 PE       0.039600
   2119 H11       -13.5470   -0.5550   -4.9070 hc       354 PE      -0.019800
   2120 H12       -13.4270   -0.6450   -3.1870 hc       354 PE      -0.019800
   2121 H21       -15.9770   -1.7150   -4.7970 hc       354 PE      -0.019800
   2122 H22       -15.8170   -1.7150   -3.0670 hc       354 PE      -0.019800
   2123 C1        -14.1670   -0.6050   -3.9970 c3       354 PE       0.039600
   2124 C2        -15.2270   -1.7650   -3.9970 c3       354 PE       0.039600
   2125 H11       -13.6970   -3.2050   -4.7870 hc       355 PE      -0.019800
   2126 H12       -13.8970   -3.2650   -3.0570 hc       355 PE      -0.019800
   2127 H21       -16.0370   -4.1750   -4.9370 hc       355 PE      -0.019800
   2128 H22       -16.1170   -4.3050   -3.1770 hc       355 PE      -0.019800
   2129 C1        -14.4570   -3.1550   -3.9970 c3       355 PE       0.039600
   2130 C2        -15.4370   -4.3050   -4.0370 c3       355 PE       0.039600
   2131 H11       -13.8370   -5.5850   -4.8170 hc       356 PE      -0.019800
   2132 H12       -14.1970   -5.8850   -3.1570 hc       356 PE      -0.019800
   2133 H21       -16.0370   -6.7650   -5.5170 hc       356 PE      -0.019800
   2134 H22       -16.6470   -6.4050   -3.8770 hc       356 PE      -0.019800
   2135 C1        -14.6770   -5.6250   -4.1070 c3       356 PE       0.039600
   2136 C2        -15.7670   -6.6950   -4.4570 c3       356 PE       0.039600
   2137 H11       -14.4970   -8.4450   -4.5070 hc       357 PE      -0.019800
   2138 H12       -15.0870   -8.1150   -2.9270 hc       357 PE      -0.019800
   2139 H21       -17.0970   -9.0950   -5.0170 hc       357 PE      -0.019800
   2140 H22       -17.2670   -9.0150   -3.3270 hc       357 PE      -0.019800
   2141 C1        -15.4170   -8.1450   -3.9770 c3       357 PE       0.039600
   2142 C2        -16.5170   -9.2550   -4.0970 c3       357 PE       0.039600
   2143 H11       -15.3370  -10.8650   -4.7970 hc       358 PE      -0.019800
   2144 H12       -15.3470  -10.7450   -3.0770 hc       358 PE      -0.019800
   2145 H21       -17.7370  -11.6850   -4.8270 hc       358 PE      -0.019800
   2146 H22       -17.6470  -11.7050   -3.0970 hc       358 PE      -0.019800
   2147 C1        -16.0070  -10.6650   -3.9470 c3       358 PE       0.039600
   2148 C2        -17.0370  -11.8150   -3.9970 c3       358 PE       0.039600
   2149 H11       -15.8170  -13.1550   -4.9770 hc       359 PE      -0.019800
   2150 H12       -15.8370  -13.3550   -3.2670 hc       359 PE      -0.019800
   2151 H21       -18.3070  -14.0350   -4.9070 hc       359 PE      -0.019800
   2152 H22       -18.1270  -14.1950   -3.1270 hc       359 PE      -0.019800
   2153 C1        -16.5070  -13.2050   -4.1270 c3       359 PE       0.039600
   2154 C2        -17.6070  -14.2650   -4.0870 c3       359 PE       0.039600
   2155 H11       -16.2570  -15.7750   -5.0570 hc       360 PE      -0.019800
   2156 H12       -16.4070  -15.9450   -3.3370 hc       360 PE      -0.019800
   2157 H21       -18.7070  -16.8250   -3.6370 hc       360 PE      -0.019800
   2158 H22       -18.5570  -16.8150   -5.3670 hc       360 PE      -0.019800
   2159 C1        -16.9870  -15.7050   -4.2370 c3       360 PE       0.039600
   2160 C2        -17.9670  -16.8650   -4.4470 c3       360 PE       0.039600
   2161 H11       -32.2070    4.1650   -6.0170 hc       361 PE      -0.019800
   2162 H12       -31.6070    2.8050   -5.0270 hc       361 PE      -0.019800
   2163 H21       -33.6970    4.8950   -4.1370 hc       361 PE      -0.019800
   2164 H22       -32.9270    3.8650   -3.0370 hc       361 PE      -0.019800
   2165 C1        -32.0170    3.8150   -4.9870 c3       361 PE       0.039600
   2166 C2        -33.2770    3.8850   -4.0770 c3       361 PE       0.039600
   2167 H11       -34.3970    2.7250   -5.4370 hc       362 PE      -0.019800
   2168 H12       -33.7270    1.7450   -4.1270 hc       362 PE      -0.019800
   2169 H21       -36.0070    3.7850   -3.7770 hc       362 PE      -0.019800
   2170 H22       -35.4570    2.5950   -2.5870 hc       362 PE      -0.019800
   2171 C1        -34.2570    2.6850   -4.3470 c3       362 PE       0.039600
   2172 C2        -35.6270    2.7650   -3.6570 c3       362 PE       0.039600
   2173 H11       -36.7070    2.1550   -5.3170 hc       363 PE      -0.019800
   2174 H12       -36.2570    0.8050   -4.3170 hc       363 PE      -0.019800
   2175 H21       -38.2070    2.9550   -3.2670 hc       363 PE      -0.019800
   2176 H22       -37.7370    1.4550   -2.5570 hc       363 PE      -0.019800
   2177 C1        -36.6770    1.8150   -4.2770 c3       363 PE       0.039600
   2178 C2        -38.0070    1.9050   -3.5170 c3       363 PE       0.039600
   2179 H11       -39.1570    1.3650   -5.2570 hc       364 PE      -0.019800
   2180 H12       -38.8570    0.0950   -4.1270 hc       364 PE      -0.019800
   2181 H21       -40.7970    2.5550   -3.6670 hc       364 PE      -0.019800
   2182 H22       -40.6170    1.2850   -2.4970 hc       364 PE      -0.019800
   2183 C1        -39.1170    1.1650   -4.1770 c3       364 PE       0.039600
   2184 C2        -40.5770    1.4850   -3.5670 c3       364 PE       0.039600
   2185 H11        38.0630    1.1750   -5.1370 hc       365 PE      -0.019800
   2186 H12        38.6330   -0.2950   -4.3470 hc       365 PE      -0.019800
   2187 H21        36.8330    1.6450   -2.7870 hc       365 PE      -0.019800
   2188 H22        37.1130   -0.0650   -2.5570 hc       365 PE      -0.019800
   2189 C1         38.2830    0.7350   -4.1670 c3       365 PE       0.039600
   2190 C2         36.9630    0.6950   -3.3270 c3       365 PE       0.039600
   2191 H11        35.4230    1.1650   -4.7270 hc       366 PE      -0.019800
   2192 H12        36.0230   -0.4750   -4.9970 hc       366 PE      -0.019800
   2193 H21        34.3630    0.4450   -2.5870 hc       366 PE      -0.019800
   2194 H22        34.9930   -1.2350   -3.0170 hc       366 PE      -0.019800
   2195 C1         35.7830    0.2650   -4.2270 c3       366 PE       0.039600
   2196 C2         34.5730   -0.2850   -3.3770 c3       366 PE       0.039600
   2197 H11        33.1230    0.4850   -4.6670 hc       367 PE      -0.019800
   2198 H12        33.5030   -1.1750   -5.0570 hc       367 PE      -0.019800
   2199 H21        31.8630   -0.1050   -2.8270 hc       367 PE      -0.019800
   2200 H22        32.3830   -1.7950   -2.7170 hc       367 PE      -0.019800
   2201 C1         33.3330   -0.4950   -4.2170 c3       367 PE       0.039600
   2202 C2         32.1330   -0.9850   -3.4170 c3       367 PE       0.039600
   2203 H11        30.6130   -0.6550   -4.9170 hc       368 PE      -0.019800
   2204 H12        31.1030   -2.3550   -4.8370 hc       368 PE      -0.019800
   2205 H21        29.4230   -0.8950   -2.7170 hc       368 PE      -0.019800
   2206 H22        29.8230   -2.5750   -2.6970 hc       368 PE      -0.019800
   2207 C1         30.9330   -1.4550   -4.2370 c3       368 PE       0.039600
   2208 C2         29.6430   -1.7450   -3.3770 c3       368 PE       0.039600
   2209 H11        28.1130   -1.2550   -5.0470 hc       369 PE      -0.019800
   2210 H12        28.5030   -2.9950   -4.7570 hc       369 PE      -0.019800
   2211 H21        26.6830   -1.2950   -2.9470 hc       369 PE      -0.019800
   2212 H22        27.2730   -2.9950   -2.6270 hc       369 PE      -0.019800
   2213 C1         28.3430   -2.0150   -4.2870 c3       369 PE       0.039600
   2214 C2         27.0930   -2.2150   -3.3870 c3       369 PE       0.039600
   2215 H11        25.5630   -2.0450   -4.9970 hc       370 PE      -0.019800
   2216 H12        26.2430   -3.5950   -4.8870 hc       370 PE      -0.019800
   2217 H21        24.4330   -2.2750   -2.8670 hc       370 PE      -0.019800
   2218 H22        25.0030   -3.9650   -2.7570 hc       370 PE      -0.019800
   2219 C1         25.9130   -2.7650   -4.2470 c3       370 PE       0.039600
   2220 C2         24.6730   -3.1750   -3.4470 c3       370 PE       0.039600
   2221 H11        23.2030   -2.8650   -5.1670 hc       371 PE      -0.019800
   2222 H12        23.7430   -4.5650   -4.9370 hc       371 PE      -0.019800
   2223 H21        21.8630   -3.1350   -3.0970 hc       371 PE      -0.019800
   2224 H22        22.5230   -4.7950   -2.8470 hc       371 PE      -0.019800
   2225 C1         23.4430   -3.6350   -4.4270 c3       371 PE       0.039600
   2226 C2         22.1830   -4.0650   -3.5970 c3       371 PE       0.039600
   2227 H11        20.7830   -3.7350   -5.0870 hc       372 PE      -0.019800
   2228 H12        21.3530   -5.4950   -4.9470 hc       372 PE      -0.019800
   2229 H21        19.5930   -4.0150   -2.9570 hc       372 PE      -0.019800
   2230 H22        20.0330   -5.6750   -2.8670 hc       372 PE      -0.019800
   2231 C1         21.0130   -4.5850   -4.4370 c3       372 PE       0.039600
   2232 C2         19.7230   -4.8950   -3.5770 c3       372 PE       0.039600
   2233 H11        18.3830   -4.6050   -5.3170 hc       373 PE      -0.019800
   2234 H12        18.5930   -6.2850   -4.7070 hc       373 PE      -0.019800
   2235 H21        16.9830   -4.3250   -3.2570 hc       373 PE      -0.019800
   2236 H22        17.3430   -5.9250   -2.6570 hc       373 PE      -0.019800
   2237 C1         18.4730   -5.2350   -4.4270 c3       373 PE       0.039600
   2238 C2         17.1930   -5.3550   -3.5770 c3       373 PE       0.039600
   2239 H11        15.7930   -5.1650   -5.2270 hc       374 PE      -0.019800
   2240 H12        15.9830   -6.8650   -4.7170 hc       374 PE      -0.019800
   2241 H21        14.3630   -4.6850   -3.3270 hc       374 PE      -0.019800
   2242 H22        14.6530   -6.2650   -2.5970 hc       374 PE      -0.019800
   2243 C1         15.8730   -5.8250   -4.3570 c3       374 PE       0.039600
   2244 C2         14.5530   -5.7450   -3.5570 c3       374 PE       0.039600
   2245 H11        13.1630   -5.6750   -5.2370 hc       375 PE      -0.019800
   2246 H12        13.6730   -7.2350   -4.5870 hc       375 PE      -0.019800
   2247 H21        11.7530   -5.3750   -3.0270 hc       375 PE      -0.019800
   2248 H22        12.1730   -6.9450   -2.5070 hc       375 PE      -0.019800
   2249 C1         13.3530   -6.2250   -4.3070 c3       375 PE       0.039600
   2250 C2         12.0230   -6.3650   -3.4270 c3       375 PE       0.039600
   2251 H11        10.7630   -6.2650   -5.1770 hc       376 PE      -0.019800
   2252 H12        11.1030   -7.8850   -4.5170 hc       376 PE      -0.019800
   2253 H21         9.3230   -5.7150   -3.5970 hc       376 PE      -0.019800
   2254 H22         9.4230   -7.2850   -2.6670 hc       376 PE      -0.019800
   2255 C1         10.8330   -6.8550   -4.2670 c3       376 PE       0.039600
   2256 C2          9.4930   -6.7950   -3.6470 c3       376 PE       0.039600
   2257 H11         8.3330   -6.6950   -5.4370 hc       377 PE      -0.019800
   2258 H12         8.5630   -8.3250   -4.7470 hc       377 PE      -0.019800
   2259 H21         6.8130   -6.0150   -3.4770 hc       377 PE      -0.019800
   2260 H22         6.9930   -7.6650   -2.8370 hc       377 PE      -0.019800
   2261 C1          8.2830   -7.2950   -4.5070 c3       377 PE       0.039600
   2262 C2          6.8930   -7.0750   -3.7470 c3       377 PE       0.039600
   2263 H11         5.5130   -6.6050   -5.3370 hc       378 PE      -0.019800
   2264 H12         5.7830   -8.3450   -5.1870 hc       378 PE      -0.019800
   2265 H21         4.2030   -6.6550   -3.1470 hc       378 PE      -0.019800
   2266 H22         4.4230   -8.4550   -3.2570 hc       378 PE      -0.019800
   2267 C1          5.6730   -7.4150   -4.6070 c3       378 PE       0.039600
   2268 C2          4.3830   -7.5050   -3.8170 c3       378 PE       0.039600
   2269 H11         3.0230   -6.5150   -5.2070 hc       379 PE      -0.019800
   2270 H12         3.2630   -8.2450   -5.4470 hc       379 PE      -0.019800
   2271 H21         1.7730   -6.8450   -3.1770 hc       379 PE      -0.019800
   2272 H22         2.1230   -8.5650   -3.2470 hc       379 PE      -0.019800
   2273 C1          3.0930   -7.4750   -4.6870 c3       379 PE       0.039600
   2274 C2          1.8930   -7.6950   -3.8670 c3       379 PE       0.039600
   2275 H11         0.5230   -7.1650   -5.4970 hc       380 PE      -0.019800
   2276 H12         0.8230   -8.8950   -5.1870 hc       380 PE      -0.019800
   2277 H21        -0.7070   -6.9350   -3.3670 hc       380 PE      -0.019800
   2278 H22        -0.5870   -8.6750   -3.1270 hc       380 PE      -0.019800
   2279 C1          0.6930   -7.9050   -4.7170 c3       380 PE       0.039600
   2280 C2         -0.5670   -7.8850   -3.8870 c3       380 PE       0.039600
   2281 H11        -1.7670   -7.3650   -5.5370 hc       381 PE      -0.019800
   2282 H12        -1.7870   -9.1350   -5.2170 hc       381 PE      -0.019800
   2283 H21        -2.9670   -7.1350   -3.2570 hc       381 PE      -0.019800
   2284 H22        -3.2670   -8.8850   -3.3170 hc       381 PE      -0.019800
   2285 C1         -1.8070   -8.1350   -4.7670 c3       381 PE       0.039600
   2286 C2         -3.1270   -7.9850   -3.9270 c3       381 PE       0.039600
   2287 H11        -4.4670   -6.7550   -5.2370 hc       382 PE      -0.019800
   2288 H12        -4.3070   -8.4150   -5.6870 hc       382 PE      -0.019800
   2289 H21        -5.6070   -9.1650   -3.6470 hc       382 PE      -0.019800
   2290 H22        -6.5570   -8.3150   -4.8070 hc       382 PE      -0.019800
   2291 C1         -4.3870   -7.7650   -4.8170 c3       382 PE       0.039600
   2292 C2         -5.7270   -8.1750   -4.1070 c3       382 PE       0.039600
   2293 H11        -5.4570   -6.6850   -2.4870 hc       383 PE      -0.019800
   2294 H12        -6.5270   -6.1950   -3.8870 hc       383 PE      -0.019800
   2295 H21        -7.1670   -8.4850   -1.9470 hc       383 PE      -0.019800
   2296 H22        -8.2270   -7.6550   -3.0770 hc       383 PE      -0.019800
   2297 C1         -6.2570   -6.9950   -3.1770 c3       383 PE       0.039600
   2298 C2         -7.4170   -7.5050   -2.3670 c3       383 PE       0.039600
   2299 H11        -6.9270   -6.3050   -0.5170 hc       384 PE      -0.019800
   2300 H12        -8.0370   -5.5350   -1.6270 hc       384 PE      -0.019800
   2301 H21        -9.1370   -8.0350   -0.4770 hc       384 PE      -0.019800
   2302 H22        -9.9370   -6.5250   -0.7370 hc       384 PE      -0.019800
   2303 C1         -7.7770   -6.4950   -1.1870 c3       384 PE       0.039600
   2304 C2         -8.9870   -6.9550   -0.4070 c3       384 PE       0.039600
   2305 H11        -8.3670   -5.6450    1.2130 hc       385 PE      -0.019800
   2306 H12        -9.7570   -6.6650    1.7130 hc       385 PE      -0.019800
   2307 H21        -7.0370   -7.8950    1.2630 hc       385 PE      -0.019800
   2308 H22        -8.3670   -8.6350    1.9230 hc       385 PE      -0.019800
   2309 C1         -8.8170   -6.6450    1.1330 c3       385 PE       0.039600
   2310 C2         -7.9170   -7.6350    1.8730 c3       385 PE       0.039600
   2311 H11        -6.8170   -6.2350    2.9830 hc       386 PE      -0.019800
   2312 H12        -8.4370   -6.5850    3.6430 hc       386 PE      -0.019800
   2313 H21        -7.6470   -8.8650    4.2630 hc       386 PE      -0.019800
   2314 H22        -7.0470   -7.5250    5.2230 hc       386 PE      -0.019800
   2315 C1         -7.5570   -7.0250    3.1730 c3       386 PE       0.039600
   2316 C2         -6.9570   -8.0150    4.2430 c3       386 PE       0.039600
   2317 H11        -5.3070   -9.1350    3.0730 hc       387 PE      -0.019800
   2318 H12        -4.7270   -7.8050    3.9630 hc       387 PE      -0.019800
   2319 H21        -5.8870  -10.3550    5.2330 hc       387 PE      -0.019800
   2320 H22        -5.2770   -8.9550    6.1130 hc       387 PE      -0.019800
   2321 C1         -5.4870   -8.5850    4.0030 c3       387 PE       0.039600
   2322 C2         -5.1270   -9.5550    5.2030 c3       387 PE       0.039600
   2323 H11        -3.5370  -10.5450    4.2730 hc       388 PE      -0.019800
   2324 H12        -2.9770   -9.2550    5.3730 hc       388 PE      -0.019800
   2325 H21        -4.3270  -11.7250    6.4530 hc       388 PE      -0.019800
   2326 H22        -3.1970  -10.5950    7.3030 hc       388 PE      -0.019800
   2327 C1         -3.7170  -10.0450    5.2230 c3       388 PE       0.039600
   2328 C2         -3.4270  -11.1050    6.3530 c3       388 PE       0.039600
   2329 H11        -2.1370  -12.6050    5.1030 hc       389 PE      -0.019800
   2330 H12        -1.3470  -11.3750    6.1430 hc       389 PE      -0.019800
   2331 H21        -1.6970  -12.6350    8.0630 hc       389 PE      -0.019800
   2332 H22        -1.2070  -13.7350    6.7230 hc       389 PE      -0.019800
   2333 C1         -2.2170  -12.0350    6.0330 c3       389 PE       0.039600
   2334 C2         -1.9870  -13.0650    7.0930 c3       389 PE       0.039600
   2335 H11        -4.1270  -13.3550    7.5130 hc       390 PE      -0.019800
   2336 H12        -3.4870  -14.6150    6.4730 hc       390 PE      -0.019800
   2337 H21        -3.9570  -15.7350    8.3830 hc       390 PE      -0.019800
   2338 H22        -3.6370  -14.4250    9.4830 hc       390 PE      -0.019800
   2339 C1         -3.2670  -14.0150    7.3630 c3       390 PE       0.039600
   2340 C2         -3.2270  -14.9450    8.6030 c3       390 PE       0.039600
   2341 H11       -37.2870  -30.1350   -4.6170 hc       391 PE      -0.019800
   2342 H12       -38.8570  -30.7750   -4.0670 hc       391 PE      -0.019800
   2343 H21       -38.2370  -27.8250   -4.8970 hc       391 PE      -0.019800
   2344 H22       -38.4570  -28.5050   -3.2670 hc       391 PE      -0.019800
   2345 C1        -38.3770  -30.0550   -4.7370 c3       391 PE       0.039600
   2346 C2        -38.8070  -28.5450   -4.3070 c3       391 PE       0.039600
   2347 H11       -40.8670  -28.5950   -5.3070 hc       392 PE      -0.019800
   2348 H12       -40.8970  -28.8950   -3.6070 hc       392 PE      -0.019800
   2349 H21       -39.8770  -26.1550   -4.5770 hc       392 PE      -0.019800
   2350 H22       -40.2870  -26.6550   -2.9470 hc       392 PE      -0.019800
   2351 C1        -40.3870  -28.2950   -4.3670 c3       392 PE       0.039600
   2352 C2        -40.5670  -26.7750   -3.9970 c3       392 PE       0.039600
   2353 H11        37.4830  -26.4750   -5.0670 hc       393 PE      -0.019800
   2354 H12        37.4130  -26.6250   -3.3470 hc       393 PE      -0.019800
   2355 H21        38.7930  -24.2150   -4.3570 hc       393 PE      -0.019800
   2356 H22        38.0030  -24.5750   -2.7870 hc       393 PE      -0.019800
   2357 C1         38.0330  -26.2250   -4.1470 c3       393 PE       0.039600
   2358 C2         37.9230  -24.6950   -3.8770 c3       393 PE       0.039600
   2359 H11        36.9030  -22.8950   -4.3670 hc       394 PE      -0.019800
   2360 H12        36.3230  -24.2650   -5.3070 hc       394 PE      -0.019800
   2361 H21        35.4930  -23.3350   -2.5970 hc       394 PE      -0.019800
   2362 H22        35.2030  -25.1050   -3.0070 hc       394 PE      -0.019800
   2363 C1         36.6230  -23.9550   -4.2970 c3       394 PE       0.039600
   2364 C2         35.4030  -24.0950   -3.3870 c3       394 PE       0.039600
   2365 H11        33.7530  -22.9850   -3.2370 hc       395 PE      -0.019800
   2366 H12        34.2130  -23.0250   -4.9770 hc       395 PE      -0.019800
   2367 H21        33.1230  -25.6050   -3.5970 hc       395 PE      -0.019800
   2368 H22        33.1930  -25.2150   -5.2470 hc       395 PE      -0.019800
   2369 C1         34.0730  -23.6250   -4.0670 c3       395 PE       0.039600
   2370 C2         32.9530  -24.7550   -4.2670 c3       395 PE       0.039600
   2371 H11        31.3830  -23.6050   -3.4170 hc       396 PE      -0.019800
   2372 H12        31.3330  -23.5450   -5.1070 hc       396 PE      -0.019800
   2373 H21        30.4730  -25.7650   -3.2370 hc       396 PE      -0.019800
   2374 H22        30.5730  -26.2350   -5.0270 hc       396 PE      -0.019800
   2375 C1         31.4630  -24.2650   -4.2870 c3       396 PE       0.039600
   2376 C2         30.4430  -25.4350   -4.2870 c3       396 PE       0.039600
   2377 H11        28.8430  -24.0550   -3.9170 hc       397 PE      -0.019800
   2378 H12        28.9730  -24.4850   -5.5870 hc       397 PE      -0.019800
   2379 H21        27.9330  -26.5650   -3.5170 hc       397 PE      -0.019800
   2380 H22        27.9930  -26.6950   -5.2870 hc       397 PE      -0.019800
   2381 C1         29.0530  -24.9150   -4.5770 c3       397 PE       0.039600
   2382 C2         27.8530  -26.0050   -4.4470 c3       397 PE       0.039600
   2383 H11        26.2030  -24.6050   -3.7670 hc       398 PE      -0.019800
   2384 H12        26.3530  -24.9250   -5.4770 hc       398 PE      -0.019800
   2385 H21        25.4730  -26.9650   -3.3970 hc       398 PE      -0.019800
   2386 H22        25.3630  -27.1350   -5.2070 hc       398 PE      -0.019800
   2387 C1         26.4130  -25.4050   -4.4870 c3       398 PE       0.039600
   2388 C2         25.2930  -26.4550   -4.3470 c3       398 PE       0.039600
   2389 H11        23.7730  -25.2150   -3.5270 hc       399 PE      -0.019800
   2390 H12        23.6730  -25.2750   -5.3370 hc       399 PE      -0.019800
   2391 H21        22.8030  -27.5650   -3.4470 hc       399 PE      -0.019800
   2392 H22        22.7030  -27.4850   -5.2570 hc       399 PE      -0.019800
   2393 C1         23.9030  -25.8450   -4.4270 c3       399 PE       0.039600
   2394 C2         22.7530  -26.9050   -4.3270 c3       399 PE       0.039600
   2395 H11        21.4830  -25.5050   -3.5170 hc       400 PE      -0.019800
   2396 H12        21.3330  -25.6150   -5.3070 hc       400 PE      -0.019800
   2397 H21        20.4930  -27.7550   -3.2170 hc       400 PE      -0.019800
   2398 H22        20.3930  -28.0250   -4.9370 hc       400 PE      -0.019800
   2399 C1         21.4530  -26.1850   -4.3770 c3       400 PE       0.039600
   2400 C2         20.2930  -27.2550   -4.1670 c3       400 PE       0.039600
   2401 H11        18.7330  -25.8850   -3.3770 hc       401 PE      -0.019800
   2402 H12        18.5830  -26.2450   -5.1070 hc       401 PE      -0.019800
   2403 H21        17.9830  -28.1750   -2.9470 hc       401 PE      -0.019800
   2404 H22        18.0430  -28.5950   -4.7170 hc       401 PE      -0.019800
   2405 C1         18.8330  -26.6750   -4.1270 c3       401 PE       0.039600
   2406 C2         17.8330  -27.8150   -3.9770 c3       401 PE       0.039600
   2407 H11        16.3030  -26.5350   -3.2870 hc       402 PE      -0.019800
   2408 H12        16.3030  -26.6850   -5.0170 hc       402 PE      -0.019800
   2409 H21        15.2530  -28.9250   -3.0670 hc       402 PE      -0.019800
   2410 H22        15.3830  -29.1050   -4.7170 hc       402 PE      -0.019800
   2411 C1         16.4030  -27.2750   -4.0870 c3       402 PE       0.039600
   2412 C2         15.2430  -28.3050   -3.9770 c3       402 PE       0.039600
   2413 H11        13.5530  -26.8350   -3.4770 hc       403 PE      -0.019800
   2414 H12        13.8730  -27.1250   -5.2070 hc       403 PE      -0.019800
   2415 H21        13.0130  -29.5150   -3.6870 hc       403 PE      -0.019800
   2416 H22        12.8630  -29.0350   -5.3970 hc       403 PE      -0.019800
   2417 C1         13.8430  -27.5950   -4.2170 c3       403 PE       0.039600
   2418 C2         12.7730  -28.6750   -4.3670 c3       403 PE       0.039600
   2419 H11        11.3930  -27.7650   -3.1870 hc       404 PE      -0.019800
   2420 H12        11.1830  -27.3350   -4.9270 hc       404 PE      -0.019800
   2421 H21        10.2130  -29.7450   -3.2470 hc       404 PE      -0.019800
   2422 H22        10.4130  -29.9750   -4.9870 hc       404 PE      -0.019800
   2423 C1         11.3330  -28.1450   -4.2070 c3       404 PE       0.039600
   2424 C2         10.2430  -29.2150   -4.2070 c3       404 PE       0.039600
   2425 H11         8.6130  -27.8150   -3.7270 hc       405 PE      -0.019800
   2426 H12         8.6830  -28.2350   -5.5070 hc       405 PE      -0.019800
   2427 H21         8.0230  -30.4550   -3.6370 hc       405 PE      -0.019800
   2428 H22         7.7730  -30.2450   -5.3370 hc       405 PE      -0.019800
   2429 C1          8.8230  -28.5950   -4.4770 c3       405 PE       0.039600
   2430 C2          7.6830  -29.7150   -4.3770 c3       405 PE       0.039600
   2431 H11         6.1930  -28.5550   -3.2570 hc       406 PE      -0.019800
   2432 H12         6.1030  -28.4450   -5.0070 hc       406 PE      -0.019800
   2433 H21         5.3030  -30.7750   -3.3870 hc       406 PE      -0.019800
   2434 H22         5.3630  -30.7850   -5.1170 hc       406 PE      -0.019800
   2435 C1          6.3130  -29.1350   -4.1770 c3       406 PE       0.039600
   2436 C2          5.2230  -30.1150   -4.2570 c3       406 PE       0.039600
   2437 H11         3.6030  -28.7250   -3.5070 hc       407 PE      -0.019800
   2438 H12         3.8630  -28.9750   -5.2270 hc       407 PE      -0.019800
   2439 H21         2.8530  -31.2250   -3.3570 hc       407 PE      -0.019800
   2440 H22         2.7430  -31.2350   -5.0770 hc       407 PE      -0.019800
   2441 C1          3.8630  -29.4750   -4.2570 c3       407 PE       0.039600
   2442 C2          2.7630  -30.5550   -4.2170 c3       407 PE       0.039600
   2443 H11         1.3430  -28.9650   -3.5670 hc       408 PE      -0.019800
   2444 H12         1.1930  -29.4150   -5.1670 hc       408 PE      -0.019800
   2445 H21         0.2030  -31.1050   -2.8370 hc       408 PE      -0.019800
   2446 H22         0.2430  -31.6950   -4.6270 hc       408 PE      -0.019800
   2447 C1          1.3730  -29.8750   -4.1870 c3       408 PE       0.039600
   2448 C2          0.1630  -30.8650   -3.9070 c3       408 PE       0.039600
   2449 H11        -1.2770  -29.3250   -3.6070 hc       409 PE      -0.019800
   2450 H12        -1.2770  -29.7350   -5.2470 hc       409 PE      -0.019800
   2451 H21        -1.9870  -32.0650   -3.3770 hc       409 PE      -0.019800
   2452 H22        -2.2970  -31.8750   -5.0370 hc       409 PE      -0.019800
   2453 C1         -1.1670  -30.1950   -4.2570 c3       409 PE       0.039600
   2454 C2         -2.2770  -31.2950   -4.0970 c3       409 PE       0.039600
   2455 H11        -3.8570  -30.2250   -3.0270 hc       410 PE      -0.019800
   2456 H12        -3.8170  -29.9350   -4.7670 hc       410 PE      -0.019800
   2457 H21        -4.7470  -32.4650   -3.2770 hc       410 PE      -0.019800
   2458 H22        -4.7170  -32.3650   -5.0470 hc       410 PE      -0.019800
   2459 C1         -3.6970  -30.7050   -3.9970 c3       410 PE       0.039600
   2460 C2         -4.8170  -31.7750   -4.1270 c3       410 PE       0.039600
   2461 H11        -6.4370  -30.4350   -3.3670 hc       411 PE      -0.019800
   2462 H12        -6.4670  -30.5050   -5.0670 hc       411 PE      -0.019800
   2463 H21        -7.4870  -32.7750   -3.5170 hc       411 PE      -0.019800
   2464 H22        -7.2270  -32.6750   -5.3170 hc       411 PE      -0.019800
   2465 C1         -6.2570  -31.1350   -4.1970 c3       411 PE       0.039600
   2466 C2         -7.4070  -32.1150   -4.3870 c3       411 PE       0.039600
   2467 H11        -9.0170  -30.7350   -3.8270 hc       412 PE      -0.019800
   2468 H12        -8.7470  -30.8150   -5.4870 hc       412 PE      -0.019800
   2469 H21        -9.8270  -33.3050   -4.0170 hc       412 PE      -0.019800
   2470 H22        -9.7970  -32.9350   -5.7470 hc       412 PE      -0.019800
   2471 C1         -8.8270  -31.4650   -4.6070 c3       412 PE       0.039600
   2472 C2         -9.9670  -32.5050   -4.7570 c3       412 PE       0.039600
   2473 H11       -11.3370  -31.1950   -3.7270 hc       413 PE      -0.019800
   2474 H12       -11.7770  -31.4050   -5.4770 hc       413 PE      -0.019800
   2475 H21       -12.0670  -33.5350   -3.4370 hc       413 PE      -0.019800
   2476 H22       -12.3370  -33.6650   -5.1070 hc       413 PE      -0.019800
   2477 C1        -11.3770  -31.8950   -4.5770 c3       413 PE       0.039600
   2478 C2        -12.4170  -32.9350   -4.2870 c3       413 PE       0.039600
   2479 H11       -13.8770  -31.3150   -3.6570 hc       414 PE      -0.019800
   2480 H12       -14.4870  -32.2750   -4.9470 hc       414 PE      -0.019800
   2481 H21       -14.1570  -33.4750   -2.1370 hc       414 PE      -0.019800
   2482 H22       -14.8670  -34.2150   -3.4870 hc       414 PE      -0.019800
   2483 C1        -13.8670  -32.3350   -4.0470 c3       414 PE       0.039600
   2484 C2        -14.7570  -33.2250   -3.0170 c3       414 PE       0.039600
   2485 H11       -15.9270  -31.5750   -2.3170 hc       415 PE      -0.019800
   2486 H12       -16.5370  -32.2250   -3.7370 hc       415 PE      -0.019800
   2487 H21       -16.8370  -33.4150   -0.7970 hc       415 PE      -0.019800
   2488 H22       -17.1470  -34.4450   -2.1870 hc       415 PE      -0.019800
   2489 C1        -16.1370  -32.5450   -2.7670 c3       415 PE       0.039600
   2490 C2        -17.0970  -33.4050   -1.8670 c3       415 PE       0.039600
   2491 H11       -18.5970  -31.8450   -1.5170 hc       416 PE      -0.019800
   2492 H12       -18.7770  -32.7150   -3.0670 hc       416 PE      -0.019800
   2493 H21       -19.1570  -33.9950   -0.4370 hc       416 PE      -0.019800
   2494 H22       -19.8670  -34.6150   -1.9070 hc       416 PE      -0.019800
   2495 C1        -18.5370  -32.8250   -2.0070 c3       416 PE       0.039600
   2496 C2        -19.6270  -33.6850   -1.3770 c3       416 PE       0.039600
   2497 H11       -20.7670  -31.9850   -0.7670 hc       417 PE      -0.019800
   2498 H12       -21.4870  -32.7650   -2.1570 hc       417 PE      -0.019800
   2499 H21       -21.5070  -34.1950    0.5130 hc       417 PE      -0.019800
   2500 H22       -22.4070  -34.4950   -0.9470 hc       417 PE      -0.019800
   2501 C1        -21.0170  -32.9750   -1.1970 c3       417 PE       0.039600
   2502 C2        -22.0670  -33.6950   -0.2870 c3       417 PE       0.039600
   2503 H11       -23.1370  -32.3550    0.9230 hc       418 PE      -0.019800
   2504 H12       -23.6270  -32.3550   -0.7970 hc       418 PE      -0.019800
   2505 H21       -24.1470  -34.6650    1.2630 hc       418 PE      -0.019800
   2506 H22       -24.5670  -34.7550   -0.3870 hc       418 PE      -0.019800
   2507 C1        -23.3870  -32.9950    0.0630 c3       418 PE       0.039600
   2508 C2        -24.4470  -34.0250    0.4230 c3       418 PE       0.039600
   2509 H11       -25.7170  -33.0650    1.9030 hc       419 PE      -0.019800
   2510 H12       -25.9470  -32.4150    0.2430 hc       419 PE      -0.019800
   2511 H21       -27.0470  -34.9650    1.6230 hc       419 PE      -0.019800
   2512 H22       -26.5570  -35.1450   -0.0070 hc       419 PE      -0.019800
   2513 C1        -25.7470  -33.3150    0.8330 c3       419 PE       0.039600
   2514 C2        -26.8970  -34.3850    0.7030 c3       419 PE       0.039600
   2515 H11       -28.4870  -33.1550    0.9930 hc       420 PE      -0.019800
   2516 H12       -28.0970  -33.3750   -0.6970 hc       420 PE      -0.019800
   2517 H21       -30.3070  -34.3250   -0.0970 hc       420 PE      -0.019800
   2518 H22       -29.8070  -35.2350    1.1930 hc       420 PE      -0.019800
   2519 C1        -28.3170  -33.9250    0.2230 c3       420 PE       0.039600
   2520 C2        -29.4270  -34.8950    0.2230 c3       420 PE       0.039600
   2521 H11       -10.3970   36.9650    0.4930 hc       421 PE      -0.019800
   2522 H12       -11.7370   35.8950    1.1630 hc       421 PE      -0.019800
   2523 H21       -10.4570   35.0250   -1.2670 hc       421 PE      -0.019800
   2524 H22       -10.9570   33.9950    0.0530 hc       421 PE      -0.019800
   2525 C1        -11.1070   36.1450    0.2930 c3       421 PE       0.039600
   2526 C2        -10.4070   34.9250   -0.1770 c3       421 PE       0.039600
   2527 H11        -8.3570   35.6850   -0.3170 hc       422 PE      -0.019800
   2528 H12        -8.8270   35.1150    1.2430 hc       422 PE      -0.019800
   2529 H21        -8.7170   33.2250   -1.1170 hc       422 PE      -0.019800
   2530 H22        -8.8770   32.8250    0.6130 hc       422 PE      -0.019800
   2531 C1         -8.8670   34.8450    0.1830 c3       422 PE       0.039600
   2532 C2         -8.3070   33.4150   -0.1170 c3       422 PE       0.039600
   2533 H11        -6.3570   33.8650   -0.7870 hc       423 PE      -0.019800
   2534 H12        -6.4170   33.6450    0.9630 hc       423 PE      -0.019800
   2535 H21        -6.8370   31.3550   -0.9970 hc       423 PE      -0.019800
   2536 H22        -6.5470   31.1850    0.6730 hc       423 PE      -0.019800
   2537 C1         -6.7470   33.2250    0.0130 c3       423 PE       0.039600
   2538 C2         -6.2670   31.8150   -0.1870 c3       423 PE       0.039600
   2539 H11        -4.4270   32.0850   -1.2470 hc       424 PE      -0.019800
   2540 H12        -4.2070   31.9650    0.4930 hc       424 PE      -0.019800
   2541 H21        -4.6770   29.4950   -1.1370 hc       424 PE      -0.019800
   2542 H22        -4.5770   29.7150    0.6630 hc       424 PE      -0.019800
   2543 C1         -4.7570   31.5350   -0.3570 c3       424 PE       0.039600
   2544 C2         -4.2570   30.0950   -0.3270 c3       424 PE       0.039600
   2545 H11        -2.3170   30.4150   -1.2570 hc       425 PE      -0.019800
   2546 H12        -2.2370   30.5150    0.4630 hc       425 PE      -0.019800
   2547 H21        -2.6670   27.8950   -1.1970 hc       425 PE      -0.019800
   2548 H22        -2.5670   27.9250    0.5630 hc       425 PE      -0.019800
   2549 C1         -2.6870   29.9150   -0.3470 c3       425 PE       0.039600
   2550 C2         -2.2170   28.4150   -0.3570 c3       425 PE       0.039600
   2551 H11        -0.4470   28.5750   -1.6170 hc       426 PE      -0.019800
   2552 H12        -0.0470   28.9550    0.0830 hc       426 PE      -0.019800
   2553 H21        -0.5170   26.1350   -0.9870 hc       426 PE      -0.019800
   2554 H22        -0.3170   26.5250    0.6530 hc       426 PE      -0.019800
   2555 C1         -0.6470   28.3150   -0.5770 c3       426 PE       0.039600
   2556 C2         -0.0470   26.8850   -0.3470 c3       426 PE       0.039600
   2557 H11         1.7630   27.1850   -1.4070 hc       427 PE      -0.019800
   2558 H12         1.8830   27.3850    0.3630 hc       427 PE      -0.019800
   2559 H21         1.4630   24.7550   -1.1470 hc       427 PE      -0.019800
   2560 H22         1.6230   24.9150    0.6330 hc       427 PE      -0.019800
   2561 C1          1.4730   26.7450   -0.4370 c3       427 PE       0.039600
   2562 C2          1.9530   25.3150   -0.3370 c3       427 PE       0.039600
   2563 H11         3.6930   25.5150   -1.4370 hc       428 PE      -0.019800
   2564 H12         4.0130   25.8650    0.3230 hc       428 PE      -0.019800
   2565 H21         3.6430   23.1950   -1.0670 hc       428 PE      -0.019800
   2566 H22         3.6630   23.3450    0.6930 hc       428 PE      -0.019800
   2567 C1          3.5430   25.1850   -0.3970 c3       428 PE       0.039600
   2568 C2          4.1230   23.7250   -0.2270 c3       428 PE       0.039600
   2569 H11         6.0530   23.4150   -1.2270 hc       429 PE      -0.019800
   2570 H12         6.1830   24.2850    0.3130 hc       429 PE      -0.019800
   2571 H21         5.6530   21.3450   -0.1270 hc       429 PE      -0.019800
   2572 H22         5.2330   22.0550    1.3830 hc       429 PE      -0.019800
   2573 C1          5.6430   23.4850   -0.2070 c3       429 PE       0.039600
   2574 C2          5.9130   22.1750    0.5330 c3       429 PE       0.039600
   2575 H11         7.9330   21.7450    0.1030 hc       430 PE      -0.019800
   2576 H12         7.7630   23.0650    1.1930 hc       430 PE      -0.019800
   2577 H21         7.1030   20.1650    1.9230 hc       430 PE      -0.019800
   2578 H22         6.9930   21.4350    3.0730 hc       430 PE      -0.019800
   2579 C1          7.3430   22.0750    0.9730 c3       430 PE       0.039600
   2580 C2          7.5430   21.1450    2.1730 c3       430 PE       0.039600
   2581 H11         9.4630   20.6450    1.7030 hc       431 PE      -0.019800
   2582 H12         9.4330   22.0950    2.7130 hc       431 PE      -0.019800
   2583 H21         9.1430   19.1950    3.6530 hc       431 PE      -0.019800
   2584 H22         8.5430   20.4250    4.7330 hc       431 PE      -0.019800
   2585 C1          8.9630   21.1150    2.5530 c3       431 PE       0.039600
   2586 C2          9.2130   20.2650    3.8730 c3       431 PE       0.039600
   2587 H11        10.9230   19.6350    5.0430 hc       432 PE      -0.019800
   2588 H12        11.3430   20.7350    3.8030 hc       432 PE      -0.019800
   2589 H21         9.5130   21.9150    5.8930 hc       432 PE      -0.019800
   2590 H22        10.7430   22.7150    4.7830 hc       432 PE      -0.019800
   2591 C1         10.5730   20.5550    4.5630 c3       432 PE       0.039600
   2592 C2         10.4930   21.8450    5.4030 c3       432 PE       0.039600
   2593 H11        11.4930   20.8450    7.0530 hc       433 PE      -0.019800
   2594 H12        12.5530   21.8250    6.2330 hc       433 PE      -0.019800
   2595 H21        12.0830   22.9050    8.3830 hc       433 PE      -0.019800
   2596 H22        10.3430   22.6550    8.3330 hc       433 PE      -0.019800
   2597 C1         11.5230   21.8450    6.6030 c3       433 PE       0.039600
   2598 C2         11.2230   22.8750    7.7130 c3       433 PE       0.039600
   2599 H11        11.6930   24.4350    6.3230 hc       434 PE      -0.019800
   2600 H12        10.0630   24.2750    6.6230 hc       434 PE      -0.019800
   2601 H21        11.0630   26.2750    7.8930 hc       434 PE      -0.019800
   2602 H22        11.7530   25.1650    8.9630 hc       434 PE      -0.019800
   2603 C1         11.0230   24.2550    7.1730 c3       434 PE       0.039600
   2604 C2         10.9130   25.2550    8.2630 c3       434 PE       0.039600
   2605 H11         9.5330   24.2450    9.5930 hc       435 PE      -0.019800
   2606 H12         9.7230   25.9450    9.9230 hc       435 PE      -0.019800
   2607 H21         8.0830   24.9350    7.4930 hc       435 PE      -0.019800
   2608 H22         8.3030   26.6450    7.9430 hc       435 PE      -0.019800
   2609 C1          9.5630   25.2250    9.1130 c3       435 PE       0.039600
   2610 C2          8.2930   25.6150    8.3330 c3       435 PE       0.039600
   2611 H11         6.9430   24.7150    9.7330 hc       436 PE      -0.019800
   2612 H12         7.1130   26.4350    9.8130 hc       436 PE      -0.019800
   2613 H21         5.7430   24.7150    7.6630 hc       436 PE      -0.019800
   2614 H22         5.7830   26.5250    7.7530 hc       436 PE      -0.019800
   2615 C1          6.9530   25.6050    9.1030 c3       436 PE       0.039600
   2616 C2          5.7130   25.5950    8.3230 c3       436 PE       0.039600
   2617 H11         4.4130   24.6350    9.8230 hc       437 PE      -0.019800
   2618 H12         4.2930   26.3750    9.7130 hc       437 PE      -0.019800
   2619 H21         3.3730   24.6150    7.4730 hc       437 PE      -0.019800
   2620 H22         3.1530   26.3750    7.5930 hc       437 PE      -0.019800
   2621 C1          4.4230   25.4650    9.1030 c3       437 PE       0.039600
   2622 C2          3.1930   25.4450    8.1730 c3       437 PE       0.039600
   2623 H11         2.0630   24.5950    9.7630 hc       438 PE      -0.019800
   2624 H12         1.7830   26.2450    9.4430 hc       438 PE      -0.019800
   2625 H21         0.7930   23.9550    7.4930 hc       438 PE      -0.019800
   2626 H22         0.4730   25.6250    7.4030 hc       438 PE      -0.019800
   2627 C1          1.9130   25.2850    8.9230 c3       438 PE       0.039600
   2628 C2          0.6830   24.8350    8.1330 c3       438 PE       0.039600
   2629 H11        -0.4470   23.8650    9.7930 hc       439 PE      -0.019800
   2630 H12        -0.7870   25.5550    9.5130 hc       439 PE      -0.019800
   2631 H21        -1.7370   23.4950    7.4730 hc       439 PE      -0.019800
   2632 H22        -2.0770   25.2750    7.5230 hc       439 PE      -0.019800
   2633 C1         -0.5970   24.6150    8.9930 c3       439 PE       0.039600
   2634 C2         -1.8670   24.3750    8.1230 c3       439 PE       0.039600
   2635 H11        -2.9970   23.2550    9.6230 hc       440 PE      -0.019800
   2636 H12        -3.4170   24.9850    9.7230 hc       440 PE      -0.019800
   2637 H21        -4.2470   22.9650    7.5830 hc       440 PE      -0.019800
   2638 H22        -4.6370   24.7650    7.5030 hc       440 PE      -0.019800
   2639 C1         -3.1670   24.1650    9.0330 c3       440 PE       0.039600
   2640 C2         -4.4470   23.8950    8.1430 c3       440 PE       0.039600
   2641 H11        -5.5270   22.8750    9.7530 hc       441 PE      -0.019800
   2642 H12        -5.7270   24.5550    9.6330 hc       441 PE      -0.019800
   2643 H21        -6.7470   22.5950    7.4530 hc       441 PE      -0.019800
   2644 H22        -7.0370   24.3050    7.5130 hc       441 PE      -0.019800
   2645 C1         -5.6770   23.6650    9.0030 c3       441 PE       0.039600
   2646 C2         -6.9570   23.4150    8.1530 c3       441 PE       0.039600
   2647 H11        -8.1070   22.4050    9.7130 hc       442 PE      -0.019800
   2648 H12        -8.3770   24.1250    9.7030 hc       442 PE      -0.019800
   2649 H21        -9.3970   22.2150    7.5530 hc       442 PE      -0.019800
   2650 H22        -9.5970   23.9050    7.5230 hc       442 PE      -0.019800
   2651 C1         -8.2270   23.2650    9.0430 c3       442 PE       0.039600
   2652 C2         -9.4870   23.0750    8.2330 c3       442 PE       0.039600
   2653 H11       -10.8170   21.9350    9.5230 hc       443 PE      -0.019800
   2654 H12       -10.9570   23.6850    9.6930 hc       443 PE      -0.019800
   2655 H21       -11.8570   21.8750    7.4630 hc       443 PE      -0.019800
   2656 H22       -12.1970   23.6450    7.4530 hc       443 PE      -0.019800
   2657 C1        -10.8570   22.8750    8.9630 c3       443 PE       0.039600
   2658 C2        -12.0670   22.7550    8.0830 c3       443 PE       0.039600
   2659 H11       -13.2970   21.6650    9.6630 hc       444 PE      -0.019800
   2660 H12       -13.4570   23.3850    9.6430 hc       444 PE      -0.019800
   2661 H21       -14.3770   21.3050    7.6730 hc       444 PE      -0.019800
   2662 H22       -14.7270   23.0550    7.5030 hc       444 PE      -0.019800
   2663 C1        -13.3470   22.5150    8.9730 c3       444 PE       0.039600
   2664 C2        -14.6370   22.2250    8.2130 c3       444 PE       0.039600
   2665 H11       -15.7570   21.1150    9.6830 hc       445 PE      -0.019800
   2666 H12       -15.9470   22.8050    9.8330 hc       445 PE      -0.019800
   2667 H21       -16.9870   21.0350    7.6030 hc       445 PE      -0.019800
   2668 H22       -17.1370   22.7250    7.3930 hc       445 PE      -0.019800
   2669 C1        -15.8470   22.0250    9.0730 c3       445 PE       0.039600
   2670 C2        -17.0970   21.9650    8.1830 c3       445 PE       0.039600
   2671 H11       -18.4670   21.5150    9.9230 hc       446 PE      -0.019800
   2672 H12       -18.4370   23.1550    9.3830 hc       446 PE      -0.019800
   2673 H21       -19.5470   21.1050    7.4030 hc       446 PE      -0.019800
   2674 H22       -19.9070   22.8150    7.6430 hc       446 PE      -0.019800
   2675 C1        -18.3870   22.1250    9.0130 c3       446 PE       0.039600
   2676 C2        -19.6770   21.8750    8.1630 c3       446 PE       0.039600
   2677 H11       -20.6570   20.5450    9.5730 hc       447 PE      -0.019800
   2678 H12       -21.2270   22.2750    9.6930 hc       447 PE      -0.019800
   2679 H21       -22.1170   20.1950    7.6130 hc       447 PE      -0.019800
   2680 H22       -22.3870   21.9450    7.4330 hc       447 PE      -0.019800
   2681 C1        -20.9670   21.4450    9.0230 c3       447 PE       0.039600
   2682 C2        -22.2470   21.1350    8.1630 c3       447 PE       0.039600
   2683 H11       -23.3170   19.9650    9.6730 hc       448 PE      -0.019800
   2684 H12       -23.6470   21.7050    9.7030 hc       448 PE      -0.019800
   2685 H21       -24.6370   19.8550    7.4730 hc       448 PE      -0.019800
   2686 H22       -24.9970   21.5950    7.8030 hc       448 PE      -0.019800
   2687 C1        -23.4370   20.8550    9.0430 c3       448 PE       0.039600
   2688 C2        -24.7770   20.6150    8.2430 c3       448 PE       0.039600
   2689 H11       -25.5970   19.4150    9.8530 hc       449 PE      -0.019800
   2690 H12       -26.1870   21.0950    9.7830 hc       449 PE      -0.019800
   2691 H21       -26.9270   18.9550    7.7630 hc       449 PE      -0.019800
   2692 H22       -27.3570   20.5850    7.6530 hc       449 PE      -0.019800
   2693 C1        -25.9370   20.2150    9.1830 c3       449 PE       0.039600
   2694 C2        -27.1870   19.8050    8.4030 c3       449 PE       0.039600
   2695 H11       -28.2970   19.1650   10.1530 hc       450 PE      -0.019800
   2696 H12       -28.8670   20.6150    9.4930 hc       450 PE      -0.019800
   2697 H21       -30.1470   19.0150    7.7530 hc       450 PE      -0.019800
   2698 H22       -29.9570   17.8950    9.1430 hc       450 PE      -0.019800
   2699 C1        -28.5070   19.6250    9.1830 c3       450 PE       0.039600
   2700 C2        -29.4270   18.5550    8.4430 c3       450 PE       0.039600
   2701 H11       -34.4170  -33.7750   -3.1670 hc       451 PE      -0.019800
   2702 H12       -35.0870  -32.7150   -1.8470 hc       451 PE      -0.019800
   2703 H21       -32.6870  -34.4750   -1.7070 hc       451 PE      -0.019800
   2704 H22       -34.1370  -34.5850   -0.6970 hc       451 PE      -0.019800
   2705 C1        -34.1870  -33.1350   -2.3070 c3       451 PE       0.039600
   2706 C2        -33.4670  -33.8850   -1.2070 c3       451 PE       0.039600
   2707 H11       -33.6370  -32.4650    0.4530 hc       452 PE      -0.019800
   2708 H12       -32.2770  -33.4550    0.5730 hc       452 PE      -0.019800
   2709 H21       -32.4270  -31.1950   -1.5970 hc       452 PE      -0.019800
   2710 H22       -31.0970  -32.4550   -1.4370 hc       452 PE      -0.019800
   2711 C1        -32.8370  -32.8750   -0.1770 c3       452 PE       0.039600
   2712 C2        -31.8570  -31.8450   -0.9370 c3       452 PE       0.039600
   2713 H11       -31.6270  -30.0650    0.3730 hc       453 PE      -0.019800
   2714 H12       -30.8870  -31.5850    0.9030 hc       453 PE      -0.019800
   2715 H21       -29.9070  -29.8750   -1.4770 hc       453 PE      -0.019800
   2716 H22       -29.1870  -31.3850   -0.9970 hc       453 PE      -0.019800
   2717 C1        -31.0770  -30.9550    0.0330 c3       453 PE       0.039600
   2718 C2        -29.6970  -30.4950   -0.5970 c3       453 PE       0.039600
   2719 H11       -28.9370  -28.7550    0.6730 hc       454 PE      -0.019800
   2720 H12       -28.3870  -30.4950    1.1130 hc       454 PE      -0.019800
   2721 H21       -27.6270  -28.6750   -1.3970 hc       454 PE      -0.019800
   2722 H22       -26.9170  -30.1850   -1.0570 hc       454 PE      -0.019800
   2723 C1        -28.6170  -29.7450    0.3430 c3       454 PE       0.039600
   2724 C2        -27.3770  -29.3250   -0.5470 c3       454 PE       0.039600
   2725 H11       -26.6770  -27.6650    0.7030 hc       455 PE      -0.019800
   2726 H12       -25.9070  -29.1450    1.1830 hc       455 PE      -0.019800
   2727 H21       -25.1870  -27.4750   -1.3470 hc       455 PE      -0.019800
   2728 H22       -24.6070  -29.1850   -0.9570 hc       455 PE      -0.019800
   2729 C1        -26.2370  -28.5850    0.3030 c3       455 PE       0.039600
   2730 C2        -24.9470  -28.2150   -0.5770 c3       455 PE       0.039600
   2731 H11       -23.5170  -28.3650    1.0430 hc       456 PE      -0.019800
   2732 H12       -22.8570  -27.8250   -0.4570 hc       456 PE      -0.019800
   2733 H21       -24.8670  -26.0550    1.0330 hc       456 PE      -0.019800
   2734 H22       -23.9970  -25.5450   -0.3270 hc       456 PE      -0.019800
   2735 C1        -23.7370  -27.7050    0.1930 c3       456 PE       0.039600
   2736 C2        -23.8770  -26.1650    0.5630 c3       456 PE       0.039600
   2737 H11       -21.8970  -25.6850    1.1230 hc       457 PE      -0.019800
   2738 H12       -23.2170  -24.5050    1.6130 hc       457 PE      -0.019800
   2739 H21       -22.8170  -27.2650    2.9130 hc       457 PE      -0.019800
   2740 H22       -23.9770  -26.0650    3.3930 hc       457 PE      -0.019800
   2741 C1        -22.8970  -25.5550    1.5630 c3       457 PE       0.039600
   2742 C2        -22.9470  -26.1850    3.0330 c3       457 PE       0.039600
   2743 H11       -21.7970  -24.5350    3.9630 hc       458 PE      -0.019800
   2744 H12       -21.9770  -26.0650    4.9430 hc       458 PE      -0.019800
   2745 H21       -20.2570  -25.3850    2.5930 hc       458 PE      -0.019800
   2746 H22       -20.5970  -27.0550    2.8730 hc       458 PE      -0.019800
   2747 C1        -21.8470  -25.6250    3.9430 c3       458 PE       0.039600
   2748 C2        -20.4770  -26.0950    3.3930 c3       458 PE       0.039600
   2749 H11       -19.4670  -25.3650    5.1330 hc       459 PE      -0.019800
   2750 H12       -19.3970  -27.0850    4.9330 hc       459 PE      -0.019800
   2751 H21       -17.7270  -24.9550    3.3830 hc       459 PE      -0.019800
   2752 H22       -17.7570  -26.6250    2.8230 hc       459 PE      -0.019800
   2753 C1        -19.3070  -26.1450    4.3730 c3       459 PE       0.039600
   2754 C2        -17.9470  -25.9850    3.6830 c3       459 PE       0.039600
   2755 H11       -16.3070  -25.2450    4.9830 hc       460 PE      -0.019800
   2756 H12       -16.9470  -26.8550    5.3930 hc       460 PE      -0.019800
   2757 H21       -15.1870  -25.9250    2.8830 hc       460 PE      -0.019800
   2758 H22       -15.4670  -27.5150    3.1930 hc       460 PE      -0.019800
   2759 C1        -16.7170  -26.1750    4.5630 c3       460 PE       0.039600
   2760 C2        -15.3970  -26.5750    3.7430 c3       460 PE       0.039600
   2761 H11       -13.9770  -25.5650    5.0030 hc       461 PE      -0.019800
   2762 H12       -14.3170  -27.1850    5.5130 hc       461 PE      -0.019800
   2763 H21       -12.5170  -26.1450    3.1430 hc       461 PE      -0.019800
   2764 H22       -12.8570  -27.8450    3.2330 hc       461 PE      -0.019800
   2765 C1        -14.0870  -26.5950    4.6130 c3       461 PE       0.039600
   2766 C2        -12.7870  -26.9450    3.8530 c3       461 PE       0.039600
   2767 H11       -11.5670  -26.0150    5.3530 hc       462 PE      -0.019800
   2768 H12       -11.5470  -27.8150    5.4630 hc       462 PE      -0.019800
   2769 H21       -10.2570  -26.0250    3.4230 hc       462 PE      -0.019800
   2770 H22       -10.0770  -27.8450    3.3430 hc       462 PE      -0.019800
   2771 C1        -11.5870  -26.9550    4.7930 c3       462 PE       0.039600
   2772 C2        -10.1870  -26.9550    3.9830 c3       462 PE       0.039600
   2773 H11        -8.9070  -26.0550    5.5730 hc       463 PE      -0.019800
   2774 H12        -8.7670  -27.8650    5.4230 hc       463 PE      -0.019800
   2775 H21        -7.6970  -25.5850    3.6630 hc       463 PE      -0.019800
   2776 H22        -7.8170  -27.1350    2.9530 hc       463 PE      -0.019800
   2777 C1         -8.9070  -26.9150    4.8930 c3       463 PE       0.039600
   2778 C2         -7.6670  -26.6550    3.9230 c3       463 PE       0.039600
   2779 H11        -6.2670  -26.9950    5.5730 hc       464 PE      -0.019800
   2780 H12        -6.2970  -28.2450    4.2830 hc       464 PE      -0.019800
   2781 H21        -5.2370  -25.4750    3.6830 hc       464 PE      -0.019800
   2782 H22        -5.0970  -26.9350    2.6430 hc       464 PE      -0.019800
   2783 C1         -6.3170  -27.1650    4.4930 c3       464 PE       0.039600
   2784 C2         -5.1270  -26.5650    3.6730 c3       464 PE       0.039600
   2785 H11        -3.8170  -26.7250    5.3630 hc       465 PE      -0.019800
   2786 H12        -3.5170  -27.9550    4.1230 hc       465 PE      -0.019800
   2787 H21        -2.8070  -24.9950    4.0230 hc       465 PE      -0.019800
   2788 H22        -2.4970  -25.9650    2.6530 hc       465 PE      -0.019800
   2789 C1         -3.7470  -26.8950    4.2830 c3       465 PE       0.039600
   2790 C2         -2.5670  -26.0250    3.7430 c3       465 PE       0.039600
   2791 H11        -1.0470  -26.0050    5.4430 hc       466 PE      -0.019800
   2792 H12        -1.1670  -27.5350    4.6130 hc       466 PE      -0.019800
   2793 H21        -0.0270  -25.0950    3.1330 hc       466 PE      -0.019800
   2794 H22         0.2030  -26.8250    2.9030 hc       466 PE      -0.019800
   2795 C1         -1.2070  -26.4550    4.4530 c3       466 PE       0.039600
   2796 C2          0.0430  -26.0550    3.6630 c3       466 PE       0.039600
   2797 H11         1.2930  -24.9550    5.0130 hc       467 PE      -0.019800
   2798 H12         1.3930  -26.6050    5.3430 hc       467 PE      -0.019800
   2799 H21         2.5630  -25.2050    2.8530 hc       467 PE      -0.019800
   2800 H22         2.6530  -26.9750    3.1530 hc       467 PE      -0.019800
   2801 C1          1.3730  -25.9150    4.4830 c3       467 PE       0.039600
   2802 C2          2.5430  -25.9850    3.6230 c3       467 PE       0.039600
   2803 H11         3.8730  -24.7950    4.8430 hc       468 PE      -0.019800
   2804 H12         3.9330  -26.5250    5.2130 hc       468 PE      -0.019800
   2805 H21         5.3030  -25.3550    2.7230 hc       468 PE      -0.019800
   2806 H22         5.2430  -27.0050    3.2230 hc       468 PE      -0.019800
   2807 C1          3.9030  -25.7950    4.3930 c3       468 PE       0.039600
   2808 C2          5.2230  -25.9850    3.6230 c3       468 PE       0.039600
   2809 H11         6.2130  -24.7550    5.0930 hc       469 PE      -0.019800
   2810 H12         6.3730  -26.4550    5.3030 hc       469 PE      -0.019800
   2811 H21         7.6430  -24.9450    2.9030 hc       469 PE      -0.019800
   2812 H22         7.7830  -26.6050    3.3730 hc       469 PE      -0.019800
   2813 C1          6.4030  -25.6750    4.5330 c3       469 PE       0.039600
   2814 C2          7.6930  -25.5950    3.7830 c3       469 PE       0.039600
   2815 H11         8.8230  -24.1750    5.0630 hc       470 PE      -0.019800
   2816 H12         9.0530  -25.9050    5.3930 hc       470 PE      -0.019800
   2817 H21        10.2730  -24.3950    3.0830 hc       470 PE      -0.019800
   2818 H22        10.4930  -26.1450    3.4030 hc       470 PE      -0.019800
   2819 C1          8.9030  -25.1650    4.6030 c3       470 PE       0.039600
   2820 C2         10.2730  -25.1750    3.8530 c3       470 PE       0.039600
   2821 H11        11.5030  -23.8850    5.2230 hc       471 PE      -0.019800
   2822 H12        11.7530  -25.5550    5.4830 hc       471 PE      -0.019800
   2823 H21        12.5930  -24.0150    2.9130 hc       471 PE      -0.019800
   2824 H22        12.8730  -25.6850    3.1830 hc       471 PE      -0.019800
   2825 C1         11.5430  -24.8350    4.6730 c3       471 PE       0.039600
   2826 C2         12.7330  -24.7450    3.7230 c3       471 PE       0.039600
   2827 H11        13.7630  -23.4750    5.0330 hc       472 PE      -0.019800
   2828 H12        14.1630  -25.2050    5.2330 hc       472 PE      -0.019800
   2829 H21        15.0230  -23.2950    2.9930 hc       472 PE      -0.019800
   2830 H22        15.4730  -25.0150    3.0330 hc       472 PE      -0.019800
   2831 C1         13.9830  -24.4050    4.5030 c3       472 PE       0.039600
   2832 C2         15.2230  -24.1450    3.6530 c3       472 PE       0.039600
   2833 H11        16.2330  -22.8050    5.0930 hc       473 PE      -0.019800
   2834 H12        16.6130  -24.4350    5.2530 hc       473 PE      -0.019800
   2835 H21        17.6130  -22.7750    2.8830 hc       473 PE      -0.019800
   2836 H22        17.9830  -24.5550    3.2630 hc       473 PE      -0.019800
   2837 C1         16.4230  -23.6850    4.4730 c3       473 PE       0.039600
   2838 C2         17.7230  -23.5550    3.6530 c3       473 PE       0.039600
   2839 H11        18.7230  -22.1550    4.9930 hc       474 PE      -0.019800
   2840 H12        18.8530  -23.8550    5.4230 hc       474 PE      -0.019800
   2841 H21        20.3030  -22.5550    2.9730 hc       474 PE      -0.019800
   2842 H22        20.3330  -24.2250    3.4230 hc       474 PE      -0.019800
   2843 C1         18.8830  -23.1550    4.5730 c3       474 PE       0.039600
   2844 C2         20.2330  -23.2150    3.8430 c3       474 PE       0.039600
   2845 H11        21.3030  -21.7950    5.0830 hc       475 PE      -0.019800
   2846 H12        21.5830  -23.4350    5.6630 hc       475 PE      -0.019800
   2847 H21        22.8730  -22.2250    3.0530 hc       475 PE      -0.019800
   2848 H22        22.9230  -23.8150    3.3530 hc       475 PE      -0.019800
   2849 C1         21.4930  -22.8250    4.7530 c3       475 PE       0.039600
   2850 C2         22.8130  -22.8850    3.9230 c3       475 PE       0.039600
   2851 H11        24.1530  -21.4550    4.8830 hc       476 PE      -0.019800
   2852 H12        23.9330  -23.0250    5.7330 hc       476 PE      -0.019800
   2853 H21        25.5430  -22.3750    3.1430 hc       476 PE      -0.019800
   2854 H22        25.5230  -23.9650    3.7730 hc       476 PE      -0.019800
   2855 C1         24.0930  -22.5450    4.7630 c3       476 PE       0.039600
   2856 C2         25.4930  -22.9150    4.0930 c3       476 PE       0.039600
   2857 H11        26.6530  -21.3750    4.9730 hc       477 PE      -0.019800
   2858 H12        26.6030  -22.8650    5.8830 hc       477 PE      -0.019800
   2859 H21        28.7430  -22.6750    5.1830 hc       477 PE      -0.019800
   2860 H22        28.2430  -22.3550    3.4230 hc       477 PE      -0.019800
   2861 C1         26.7030  -22.4650    4.8630 c3       477 PE       0.039600
   2862 C2         28.0430  -22.8750    4.3630 c3       477 PE       0.039600
   2863 H11        27.8030  -24.8450    5.1630 hc       478 PE      -0.019800
   2864 H12        27.6830  -24.8250    3.3730 hc       478 PE      -0.019800
   2865 H21        30.0530  -24.7550    5.2430 hc       478 PE      -0.019800
   2866 H22        30.2430  -24.2050    3.4930 hc       478 PE      -0.019800
   2867 C1         28.2130  -24.4150    4.2430 c3       478 PE       0.039600
   2868 C2         29.7230  -24.8550    4.2030 c3       478 PE       0.039600
   2869 H11        29.3830  -26.9350    4.6930 hc       479 PE      -0.019800
   2870 H12        29.5930  -26.6650    2.9430 hc       479 PE      -0.019800
   2871 H21        31.9630  -26.3350    4.8730 hc       479 PE      -0.019800
   2872 H22        31.9630  -26.1150    3.2730 hc       479 PE      -0.019800
   2873 C1         29.9430  -26.3650    3.9430 c3       479 PE       0.039600
   2874 C2         31.4330  -26.7350    4.0030 c3       479 PE       0.039600
   2875 H11        31.2030  -28.7950    4.6430 hc       480 PE      -0.019800
   2876 H12        31.2030  -28.6150    2.9030 hc       480 PE      -0.019800
   2877 H21        33.6930  -28.2250    2.9730 hc       480 PE      -0.019800
   2878 H22        33.6630  -28.5150    4.6230 hc       480 PE      -0.019800
   2879 C1         31.6730  -28.2450    3.8230 c3       480 PE       0.039600
   2880 C2         33.1030  -28.7750    3.7230 c3       480 PE       0.039600
   2881 H11       -11.7970  -39.8750    9.6930 hc       481 PE      -0.019800
   2882 H12       -11.7070  -39.7150    8.0330 hc       481 PE      -0.019800
   2883 H21       -10.2970  -38.0050   10.1730 hc       481 PE      -0.019800
   2884 H22       -10.6170  -37.3150    8.6230 hc       481 PE      -0.019800
   2885 C1        -11.7870  -39.0850    8.9330 c3       481 PE       0.039600
   2886 C2        -10.4370  -38.2750    9.1230 c3       481 PE       0.039600
   2887 H11        -8.8870  -39.9850    8.9530 hc       482 PE      -0.019800
   2888 H12        -9.2070  -39.2750    7.4330 hc       482 PE      -0.019800
   2889 H21        -7.7770  -37.8050    9.7030 hc       482 PE      -0.019800
   2890 H22        -8.0870  -37.1950    8.0830 hc       482 PE      -0.019800
   2891 C1         -9.1770  -39.0250    8.5030 c3       482 PE       0.039600
   2892 C2         -7.9170  -38.1050    8.6630 c3       482 PE       0.039600
   2893 H11        -6.6670  -39.6050    8.9430 hc       483 PE      -0.019800
   2894 H12        -6.8370  -39.0750    7.1930 hc       483 PE      -0.019800
   2895 H21        -5.3270  -37.2850    9.3730 hc       483 PE      -0.019800
   2896 H22        -5.6970  -36.9450    7.7430 hc       483 PE      -0.019800
   2897 C1         -6.6370  -38.7750    8.2330 c3       483 PE       0.039600
   2898 C2         -5.4470  -37.7850    8.4130 c3       483 PE       0.039600
   2899 H11        -4.1370  -39.4650    8.4630 hc       484 PE      -0.019800
   2900 H12        -4.0570  -38.7150    7.0330 hc       484 PE      -0.019800
   2901 H21        -2.8970  -37.5850    9.5830 hc       484 PE      -0.019800
   2902 H22        -3.0270  -36.6350    8.1230 hc       484 PE      -0.019800
   2903 C1         -4.1070  -38.4350    8.0930 c3       484 PE       0.039600
   2904 C2         -2.8370  -37.6450    8.4930 c3       484 PE       0.039600
   2905 H11        -1.4170  -39.1750    8.7730 hc       485 PE      -0.019800
   2906 H12        -1.3070  -38.4650    7.1230 hc       485 PE      -0.019800
   2907 H21        -0.2670  -37.0150    9.5630 hc       485 PE      -0.019800
   2908 H22        -0.3370  -36.4450    7.8730 hc       485 PE      -0.019800
   2909 C1         -1.4770  -38.2550    8.1830 c3       485 PE       0.039600
   2910 C2         -0.3070  -37.3350    8.5230 c3       485 PE       0.039600
   2911 H11         1.0830  -38.9650    8.6930 hc       486 PE      -0.019800
   2912 H12         1.1730  -38.0850    7.1330 hc       486 PE      -0.019800
   2913 H21         2.1430  -37.1650    9.8630 hc       486 PE      -0.019800
   2914 H22         2.2130  -36.0450    8.5430 hc       486 PE      -0.019800
   2915 C1          1.0730  -37.9750    8.2130 c3       486 PE       0.039600
   2916 C2          2.2430  -37.1150    8.7730 c3       486 PE       0.039600
   2917 H11         3.6230  -38.6650    8.3130 hc       487 PE      -0.019800
   2918 H12         3.7730  -37.2150    7.2230 hc       487 PE      -0.019800
   2919 H21         5.0230  -37.4650   10.0430 hc       487 PE      -0.019800
   2920 H22         4.7430  -35.9550    9.1830 hc       487 PE      -0.019800
   2921 C1          3.6830  -37.5750    8.2630 c3       487 PE       0.039600
   2922 C2          4.9330  -37.0250    9.0430 c3       487 PE       0.039600
   2923 H11         6.4130  -38.3450    8.1930 hc       488 PE      -0.019800
   2924 H12         6.1630  -36.8450    7.3430 hc       488 PE      -0.019800
   2925 H21         7.6730  -37.1150   10.0430 hc       488 PE      -0.019800
   2926 H22         7.2830  -35.5750    9.2730 hc       488 PE      -0.019800
   2927 C1          6.2830  -37.2650    8.3430 c3       488 PE       0.039600
   2928 C2          7.4930  -36.6350    9.0730 c3       488 PE       0.039600
   2929 H11         9.0530  -37.7850    8.1430 hc       489 PE      -0.019800
   2930 H12         8.7430  -36.1650    7.3930 hc       489 PE      -0.019800
   2931 H21        10.2130  -36.6650   10.0830 hc       489 PE      -0.019800
   2932 H22         9.8830  -35.1550    9.2130 hc       489 PE      -0.019800
   2933 C1          8.7830  -36.7450    8.3230 c3       489 PE       0.039600
   2934 C2         10.0630  -36.2250    9.0930 c3       489 PE       0.039600
   2935 H11        11.4030  -37.4650    8.1730 hc       490 PE      -0.019800
   2936 H12        11.2530  -35.9250    7.3130 hc       490 PE      -0.019800
   2937 H21        12.7230  -36.6150    9.8630 hc       490 PE      -0.019800
   2938 H22        12.5930  -34.8650    9.2930 hc       490 PE      -0.019800
   2939 C1         11.3530  -36.3750    8.3130 c3       490 PE       0.039600
   2940 C2         12.6730  -35.9250    9.0130 c3       490 PE       0.039600
   2941 H11        13.9030  -36.9150    7.5030 hc       491 PE      -0.019800
   2942 H12        13.8330  -35.1950    7.3930 hc       491 PE      -0.019800
   2943 H21        15.4130  -36.8450    9.4830 hc       491 PE      -0.019800
   2944 H22        15.1630  -35.1350    9.8230 hc       491 PE      -0.019800
   2945 C1         13.9730  -36.0050    8.1130 c3       491 PE       0.039600
   2946 C2         15.2530  -35.8650    9.0130 c3       491 PE       0.039600
   2947 H11        16.3830  -35.9450    7.2030 hc       492 PE      -0.019800
   2948 H12        16.5730  -34.4350    8.2330 hc       492 PE      -0.019800
   2949 H21        17.6330  -37.2550    8.9930 hc       492 PE      -0.019800
   2950 H22        18.0930  -35.7050    9.8630 hc       492 PE      -0.019800
   2951 C1         16.5330  -35.5350    8.2130 c3       492 PE       0.039600
   2952 C2         17.8630  -36.1850    8.9030 c3       492 PE       0.039600
   2953 H11        19.7230  -36.8450    8.0630 hc       493 PE      -0.019800
   2954 H12        18.6630  -36.2450    6.8630 hc       493 PE      -0.019800
   2955 H21        20.1330  -34.5050    9.0430 hc       493 PE      -0.019800
   2956 H22        19.1030  -33.8550    7.7830 hc       493 PE      -0.019800
   2957 C1         19.0230  -36.0150    7.8730 c3       493 PE       0.039600
   2958 C2         19.8030  -34.6750    8.0030 c3       493 PE       0.039600
   2959 H11        21.7630  -35.2150    7.5230 hc       494 PE      -0.019800
   2960 H12        20.6530  -34.9250    6.1230 hc       494 PE      -0.019800
   2961 H21        22.3130  -33.1950    7.8930 hc       494 PE      -0.019800
   2962 H22        20.7730  -32.4050    7.3930 hc       494 PE      -0.019800
   2963 C1         21.0430  -34.5250    7.0630 c3       494 PE       0.039600
   2964 C2         21.5730  -33.1050    7.0930 c3       494 PE       0.039600
   2965 H11        23.2930  -32.5950    5.9930 hc       495 PE      -0.019800
   2966 H12        22.2030  -33.5750    4.9830 hc       495 PE      -0.019800
   2967 H21        22.2330  -31.0450    4.3930 hc       495 PE      -0.019800
   2968 H22        21.3730  -30.7150    5.8730 hc       495 PE      -0.019800
   2969 C1         22.2530  -32.7550    5.7030 c3       495 PE       0.039600
   2970 C2         21.5430  -31.4950    5.1230 c3       495 PE       0.039600
   2971 H11        20.2130  -31.2650    3.2930 hc       496 PE      -0.019800
   2972 H12        20.1730  -32.8450    4.0030 hc       496 PE      -0.019800
   2973 H21        18.8730  -30.6550    5.3930 hc       496 PE      -0.019800
   2974 H22        18.9630  -32.2850    5.9530 hc       496 PE      -0.019800
   2975 C1         20.1930  -31.7750    4.2630 c3       496 PE       0.039600
   2976 C2         18.9130  -31.6850    5.0330 c3       496 PE       0.039600
   2977 H11        17.4130  -31.4150    3.3930 hc       497 PE      -0.019800
   2978 H12        17.8930  -33.0950    3.6930 hc       497 PE      -0.019800
   2979 H21        16.2630  -31.3350    5.6830 hc       497 PE      -0.019800
   2980 H22        16.3530  -33.0650    5.6830 hc       497 PE      -0.019800
   2981 C1         17.6530  -32.1450    4.1830 c3       497 PE       0.039600
   2982 C2         16.4230  -32.1950    5.0230 c3       497 PE       0.039600
   2983 H11        15.0530  -31.5650    3.3530 hc       498 PE      -0.019800
   2984 H12        15.3730  -33.2750    3.4130 hc       498 PE      -0.019800
   2985 H21        13.6530  -31.6650    5.4130 hc       498 PE      -0.019800
   2986 H22        14.0530  -33.4150    5.6330 hc       498 PE      -0.019800
   2987 C1         15.1830  -32.3950    4.0530 c3       498 PE       0.039600
   2988 C2         13.8830  -32.6050    4.9030 c3       498 PE       0.039600
   2989 H11        12.5930  -32.0850    3.2930 hc       499 PE      -0.019800
   2990 H12        12.9830  -33.7050    3.4130 hc       499 PE      -0.019800
   2991 H21        11.0930  -32.0750    5.3930 hc       499 PE      -0.019800
   2992 H22        11.5030  -33.7550    5.6730 hc       499 PE      -0.019800
   2993 C1         12.7130  -32.8650    4.0630 c3       499 PE       0.039600
   2994 C2         11.4130  -32.9950    4.8830 c3       499 PE       0.039600
   2995 H11        10.0230  -32.6750    3.3230 hc       500 PE      -0.019800
   2996 H12        10.5530  -34.3150    3.4130 hc       500 PE      -0.019800
   2997 H21         8.8030  -33.2150    5.6930 hc       500 PE      -0.019800
   2998 H22         9.0430  -34.8550    5.2230 hc       500 PE      -0.019800
   2999 C1         10.2430  -33.4750    4.0430 c3       500 PE       0.039600
   3000 C2          8.9530  -33.8450    4.8130 c3       500 PE       0.039600
   3001 H11         7.5530  -32.7750    3.5430 hc       501 PE      -0.019800
   3002 H12         7.7030  -34.4650    3.1230 hc       501 PE      -0.019800
   3003 H21         6.1630  -33.0250    5.2830 hc       501 PE      -0.019800
   3004 H22         6.6830  -34.7550    5.5730 hc       501 PE      -0.019800
   3005 C1          7.6430  -33.7850    3.9730 c3       501 PE       0.039600
   3006 C2          6.4430  -33.9850    4.8330 c3       501 PE       0.039600
   3007 H11         5.0130  -33.6150    3.4130 hc       502 PE      -0.019800
   3008 H12         5.7030  -35.3450    3.4530 hc       502 PE      -0.019800
   3009 H21         3.9630  -34.3650    5.8430 hc       502 PE      -0.019800
   3010 H22         4.1330  -35.9150    5.3630 hc       502 PE      -0.019800
   3011 C1          5.2930  -34.4950    4.0030 c3       502 PE       0.039600
   3012 C2          4.0730  -34.9150    4.9030 c3       502 PE       0.039600
   3013 H11         2.7930  -33.6950    3.7630 hc       503 PE      -0.019800
   3014 H12         2.7730  -35.4250    3.2430 hc       503 PE      -0.019800
   3015 H21         1.5030  -33.9950    5.6130 hc       503 PE      -0.019800
   3016 H22         1.5430  -35.7550    5.5830 hc       503 PE      -0.019800
   3017 C1          2.7230  -34.7350    4.0930 c3       503 PE       0.039600
   3018 C2          1.5030  -34.8650    4.9330 c3       503 PE       0.039600
   3019 H11         0.1530  -34.1150    3.4330 hc       504 PE      -0.019800
   3020 H12         0.2630  -35.8950    3.4030 hc       504 PE      -0.019800
   3021 H21        -1.0570  -34.2950    5.5930 hc       504 PE      -0.019800
   3022 H22        -1.0070  -36.1250    5.4330 hc       504 PE      -0.019800
   3023 C1          0.2330  -35.0250    4.0630 c3       504 PE       0.039600
   3024 C2         -1.0170  -35.1550    4.9230 c3       504 PE       0.039600
   3025 H11        -2.3370  -34.4650    3.3030 hc       505 PE      -0.019800
   3026 H12        -2.2670  -36.1450    3.5630 hc       505 PE      -0.019800
   3027 H21        -3.6670  -34.2450    5.5130 hc       505 PE      -0.019800
   3028 H22        -3.5670  -35.9650    5.6530 hc       505 PE      -0.019800
   3029 C1         -2.3070  -35.1950    4.1130 c3       505 PE       0.039600
   3030 C2         -3.6070  -35.1550    4.9130 c3       505 PE       0.039600
   3031 H11        -4.7570  -34.4450    3.2830 hc       506 PE      -0.019800
   3032 H12        -4.4770  -36.2050    3.4030 hc       506 PE      -0.019800
   3033 H21        -6.2170  -34.3550    5.0630 hc       506 PE      -0.019800
   3034 H22        -6.1470  -36.0550    5.5630 hc       506 PE      -0.019800
   3035 C1         -4.7570  -35.3050    3.9630 c3       506 PE       0.039600
   3036 C2         -6.1170  -35.3850    4.6930 c3       506 PE       0.039600
   3037 H11        -7.1970  -34.7350    2.9030 hc       507 PE      -0.019800
   3038 H12        -7.0970  -36.3850    3.0630 hc       507 PE      -0.019800
   3039 H21        -8.5370  -35.9650    5.3830 hc       507 PE      -0.019800
   3040 H22        -9.2670  -36.1350    3.7230 hc       507 PE      -0.019800
   3041 C1         -7.2870  -35.4950    3.6830 c3       507 PE       0.039600
   3042 C2         -8.6170  -35.5350    4.3830 c3       507 PE       0.039600
   3043 H11        -8.7470  -33.6150    5.4230 hc       508 PE      -0.019800
   3044 H12        -8.6370  -33.4650    3.7630 hc       508 PE      -0.019800
   3045 H21       -11.1370  -34.4550    5.3230 hc       508 PE      -0.019800
   3046 H22       -11.0270  -34.3250    3.5430 hc       508 PE      -0.019800
   3047 C1         -9.1970  -34.0350    4.5130 c3       508 PE       0.039600
   3048 C2        -10.6970  -33.8850    4.4930 c3       508 PE       0.039600
   3049 H11       -10.4370  -31.6850    4.7430 hc       509 PE      -0.019800
   3050 H12       -10.9870  -32.2450    3.1530 hc       509 PE      -0.019800
   3051 H21       -12.6970  -32.3850    5.6330 hc       509 PE      -0.019800
   3052 H22       -13.1770  -32.6950    3.9830 hc       509 PE      -0.019800
   3053 C1        -11.1270  -32.3750    4.2330 c3       509 PE       0.039600
   3054 C2        -12.5570  -32.0350    4.6030 c3       509 PE       0.039600
   3055 H11       -12.2070  -29.9650    5.1230 hc       510 PE      -0.019800
   3056 H12       -12.5470  -30.1450    3.4330 hc       510 PE      -0.019800
   3057 H21       -14.4870  -29.3250    5.0830 hc       510 PE      -0.019800
   3058 H22       -15.0270  -30.6350    3.8930 hc       510 PE      -0.019800
   3059 C1        -12.8270  -30.5350    4.4230 c3       510 PE       0.039600
   3060 C2        -14.3070  -30.3250    4.6630 c3       510 PE       0.039600
   3061 H11        -1.9070   15.5750   -0.0470 hc       511 PE      -0.019800
   3062 H12        -0.4570   16.4650    0.3130 hc       511 PE      -0.019800
   3063 H21        -1.6070   18.4250    0.8830 hc       511 PE      -0.019800
   3064 H22        -2.7470   17.0950    1.1830 hc       511 PE      -0.019800
   3065 C1         -1.3970   16.5350   -0.2470 c3       511 PE       0.039600
   3066 C2         -2.2170   17.6550    0.4030 c3       511 PE       0.039600
   3067 H11        -2.7770   18.7850   -1.3070 hc       512 PE      -0.019800
   3068 H12        -3.9770   17.4750   -0.9570 hc       512 PE      -0.019800
   3069 H21        -3.6970   19.9750    0.7530 hc       512 PE      -0.019800
   3070 H22        -4.6970   18.5350    1.0730 hc       512 PE      -0.019800
   3071 C1         -3.3270   18.2450   -0.5270 c3       512 PE       0.039600
   3072 C2         -4.2570   19.1650    0.2930 c3       512 PE       0.039600
   3073 H11        -5.0570   20.4850   -1.2670 hc       513 PE      -0.019800
   3074 H12        -5.8870   18.9950   -1.2170 hc       513 PE      -0.019800
   3075 H21        -6.1870   20.9450    1.1730 hc       513 PE      -0.019800
   3076 H22        -7.2670   19.6150    0.5830 hc       513 PE      -0.019800
   3077 C1         -5.4570   19.7550   -0.5570 c3       513 PE       0.039600
   3078 C2         -6.5970   20.4450    0.2930 c3       513 PE       0.039600
   3079 H11        -6.7570   22.1750   -1.1470 hc       514 PE      -0.019800
   3080 H12        -7.9070   20.8850   -1.3070 hc       514 PE      -0.019800
   3081 H21        -7.9170   22.9650    1.0030 hc       514 PE      -0.019800
   3082 H22        -9.0670   21.7350    0.8630 hc       514 PE      -0.019800
   3083 C1         -7.3870   21.4950   -0.5570 c3       514 PE       0.039600
   3084 C2         -8.4270   22.3650    0.2430 c3       514 PE       0.039600
   3085 H11        -8.7170   23.7250   -1.4570 hc       515 PE      -0.019800
   3086 H12        -9.9670   22.5050   -1.3170 hc       515 PE      -0.019800
   3087 H21        -9.5470   24.7650    0.5630 hc       515 PE      -0.019800
   3088 H22       -10.9270   23.4650    0.6430 hc       515 PE      -0.019800
   3089 C1         -9.3470   23.1850   -0.7370 c3       515 PE       0.039600
   3090 C2        -10.2770   24.1250    0.0530 c3       515 PE       0.039600
   3091 H11       -10.3370   25.6350   -1.4770 hc       516 PE      -0.019800
   3092 H12       -11.5670   24.4550   -1.6770 hc       516 PE      -0.019800
   3093 H21       -11.4770   26.5650    0.5330 hc       516 PE      -0.019800
   3094 H22       -12.7170   25.2950    0.5830 hc       516 PE      -0.019800
   3095 C1        -11.0870   25.0750   -0.9070 c3       516 PE       0.039600
   3096 C2        -12.1070   25.9050   -0.0870 c3       516 PE       0.039600
   3097 H11       -12.5270   27.4450   -1.6070 hc       517 PE      -0.019800
   3098 H12       -13.6370   26.0650   -1.6270 hc       517 PE      -0.019800
   3099 H21       -13.6970   28.3150    0.4730 hc       517 PE      -0.019800
   3100 H22       -14.5670   26.8150    0.4530 hc       517 PE      -0.019800
   3101 C1        -13.0970   26.7550   -0.9670 c3       517 PE       0.039600
   3102 C2        -14.1470   27.5850   -0.2070 c3       517 PE       0.039600
   3103 H11       -14.8370   29.0450   -1.5370 hc       518 PE      -0.019800
   3104 H12       -15.6070   27.4150   -1.7370 hc       518 PE      -0.019800
   3105 H21       -16.0370   29.1150    0.7530 hc       518 PE      -0.019800
   3106 H22       -16.7670   27.6250    0.3030 hc       518 PE      -0.019800
   3107 C1        -15.2970   28.1850   -1.0270 c3       518 PE       0.039600
   3108 C2        -16.4770   28.6050   -0.1170 c3       518 PE       0.039600
   3109 H11       -17.0770   30.0950   -1.5570 hc       519 PE      -0.019800
   3110 H12       -18.2070   28.7650   -1.5370 hc       519 PE      -0.019800
   3111 H21       -17.9770   31.0850    0.4430 hc       519 PE      -0.019800
   3112 H22       -18.7870   29.5050    0.8730 hc       519 PE      -0.019800
   3113 C1        -17.5570   29.3750   -0.8970 c3       519 PE       0.039600
   3114 C2        -18.5070   30.1950    0.0730 c3       519 PE       0.039600
   3115 H11       -19.6570   31.3950   -1.4370 hc       520 PE      -0.019800
   3116 H12       -20.4570   29.9250   -1.0670 hc       520 PE      -0.019800
   3117 H21       -20.0570   32.3650    0.6830 hc       520 PE      -0.019800
   3118 H22       -20.8970   30.9350    1.1830 hc       520 PE      -0.019800
   3119 C1        -19.8070   30.6850   -0.6170 c3       520 PE       0.039600
   3120 C2        -20.6570   31.5350    0.2930 c3       520 PE       0.039600
   3121 H11       -21.5970   32.7950   -1.2470 hc       521 PE      -0.019800
   3122 H12       -22.4670   31.3550   -0.9570 hc       521 PE      -0.019800
   3123 H21       -22.4070   33.5550    1.0430 hc       521 PE      -0.019800
   3124 H22       -23.2470   31.9450    1.2330 hc       521 PE      -0.019800
   3125 C1        -21.8870   32.1150   -0.4370 c3       521 PE       0.039600
   3126 C2        -22.8970   32.7150    0.5330 c3       521 PE       0.039600
   3127 H11       -23.7770   33.6750   -1.3170 hc       522 PE      -0.019800
   3128 H12       -24.7670   32.4650   -0.7070 hc       522 PE      -0.019800
   3129 H21       -24.1870   35.1050    0.7530 hc       522 PE      -0.019800
   3130 H22       -25.2170   33.7450    1.3430 hc       522 PE      -0.019800
   3131 C1        -24.0970   33.2650   -0.3570 c3       522 PE       0.039600
   3132 C2        -24.8570   34.2950    0.4730 c3       522 PE       0.039600
   3133 H11       -25.8170   35.5750   -1.0170 hc       523 PE      -0.019800
   3134 H12       -26.7070   34.0550   -0.5370 hc       523 PE      -0.019800
   3135 H21       -26.5770   36.6750    1.0530 hc       523 PE      -0.019800
   3136 H22       -27.2870   35.0950    1.4430 hc       523 PE      -0.019800
   3137 C1        -26.0670   34.8750   -0.1970 c3       523 PE       0.039600
   3138 C2        -26.9770   35.7450    0.6130 c3       523 PE       0.039600
   3139 H11       -27.9070   37.1750   -0.5770 hc       524 PE      -0.019800
   3140 H12       -28.3970   35.5250   -1.1070 hc       524 PE      -0.019800
   3141 H21       -29.3070   36.9450    1.5030 hc       524 PE      -0.019800
   3142 H22       -29.4170   35.2350    1.1330 hc       524 PE      -0.019800
   3143 C1        -28.2170   36.1750   -0.2470 c3       524 PE       0.039600
   3144 C2        -29.4270   36.2250    0.6730 c3       524 PE       0.039600
   3145 H11       -30.7070   37.4850   -0.6470 hc       525 PE      -0.019800
   3146 H12       -30.9370   35.7550   -0.8370 hc       525 PE      -0.019800
   3147 H21       -31.9270   37.5350    1.3930 hc       525 PE      -0.019800
   3148 H22       -31.8570   35.7550    1.5230 hc       525 PE      -0.019800
   3149 C1        -30.7770   36.5450   -0.0870 c3       525 PE       0.039600
   3150 C2        -31.9670   36.5950    0.8230 c3       525 PE       0.039600
   3151 H11       -33.4170   37.1550   -0.7870 hc       526 PE      -0.019800
   3152 H12       -33.1970   35.5350   -0.4870 hc       526 PE      -0.019800
   3153 H21       -34.7170   37.4850    1.2130 hc       526 PE      -0.019800
   3154 H22       -34.4170   35.7950    1.7630 hc       526 PE      -0.019800
   3155 C1        -33.2770   36.4750    0.0630 c3       526 PE       0.039600
   3156 C2        -34.5670   36.4450    0.8930 c3       526 PE       0.039600
   3157 H11       -36.0370   36.9550   -0.7270 hc       527 PE      -0.019800
   3158 H12       -35.6170   35.2350   -0.4970 hc       527 PE      -0.019800
   3159 H21       -37.2970   36.9450    1.4630 hc       527 PE      -0.019800
   3160 H22       -36.9270   35.3150    1.7630 hc       527 PE      -0.019800
   3161 C1        -35.8670   36.1750    0.0230 c3       527 PE       0.039600
   3162 C2        -37.1070   36.0050    0.9330 c3       527 PE       0.039600
   3163 H11       -38.5670   36.3450   -0.5770 hc       528 PE      -0.019800
   3164 H12       -37.9470   34.7150   -0.5870 hc       528 PE      -0.019800
   3165 H21       -39.7370   35.7550    1.5130 hc       528 PE      -0.019800
   3166 H22       -38.9270   34.1750    1.4930 hc       528 PE      -0.019800
   3167 C1        -38.2470   35.5250    0.0830 c3       528 PE       0.039600
   3168 C2        -39.3770   34.9550    0.8630 c3       528 PE       0.039600
   3169 H11        39.0930   35.0650   -0.7470 hc       529 PE      -0.019800
   3170 H12        39.9730   33.5150   -0.5170 hc       529 PE      -0.019800
   3171 H21        37.6330   34.7350    0.9530 hc       529 PE      -0.019800
   3172 H22        38.5730   33.4250    1.7730 hc       529 PE      -0.019800
   3173 C1         39.4930   34.3550   -0.0170 c3       529 PE       0.039600
   3174 C2         38.2730   33.8650    0.8130 c3       529 PE       0.039600
   3175 H11        36.6130   32.4750    0.7430 hc       530 PE      -0.019800
   3176 H12        36.8830   33.3350   -0.7770 hc       530 PE      -0.019800
   3177 H21        38.7430   31.9450   -1.3670 hc       530 PE      -0.019800
   3178 H22        37.5530   30.7850   -0.9170 hc       530 PE      -0.019800
   3179 C1         37.3830   32.7950    0.0330 c3       530 PE       0.039600
   3180 C2         38.1730   31.5850   -0.4970 c3       530 PE       0.039600
   3181 H11       -40.2870   31.6950    0.9330 hc       531 PE      -0.019800
   3182 H12       -41.5270   30.4050    1.2830 hc       531 PE      -0.019800
   3183 H21       -39.4370   30.1850   -0.9170 hc       531 PE      -0.019800
   3184 H22       -40.7470   29.1050   -0.6070 hc       531 PE      -0.019800
   3185 C1        -40.9370   30.9150    0.5130 c3       531 PE       0.039600
   3186 C2        -40.0570   29.7950   -0.1070 c3       531 PE       0.039600
   3187 H11       -38.1770   29.9850    0.9730 hc       532 PE      -0.019800
   3188 H12       -39.5470   28.9750    1.6730 hc       532 PE      -0.019800
   3189 H21       -38.0670   28.2150   -1.0170 hc       532 PE      -0.019800
   3190 H22       -38.9470   27.1250    0.1130 hc       532 PE      -0.019800
   3191 C1        -38.9270   29.2050    0.8030 c3       532 PE       0.039600
   3192 C2        -38.2470   27.9650    0.0330 c3       532 PE       0.039600
   3193 H11       -36.1970   28.2950    0.4230 hc       533 PE      -0.019800
   3194 H12       -36.9670   27.5450    1.8230 hc       533 PE      -0.019800
   3195 H21       -35.7570   26.2650   -0.5770 hc       533 PE      -0.019800
   3196 H22       -37.1670   25.4750    0.1530 hc       533 PE      -0.019800
   3197 C1        -36.9570   27.5550    0.7230 c3       533 PE       0.039600
   3198 C2        -36.3470   26.1850    0.3430 c3       533 PE       0.039600
   3199 H11       -34.3370   25.5850    0.9830 hc       534 PE      -0.019800
   3200 H12       -35.1970   26.1450    2.3030 hc       534 PE      -0.019800
   3201 H21       -34.7270   23.7250    2.2630 hc       534 PE      -0.019800
   3202 H22       -36.0670   23.5850    1.0230 hc       534 PE      -0.019800
   3203 C1        -35.3670   25.6050    1.3630 c3       534 PE       0.039600
   3204 C2        -35.6570   24.1550    1.8730 c3       534 PE       0.039600
   3205 H11       -36.7070   23.0750    3.4130 hc       535 PE      -0.019800
   3206 H12       -36.3070   24.6850    3.9430 hc       535 PE      -0.019800
   3207 H21       -38.6270   23.6050    2.1930 hc       535 PE      -0.019800
   3208 H22       -38.2370   25.3650    2.1530 hc       535 PE      -0.019800
   3209 C1        -36.6570   24.1150    3.0730 c3       535 PE       0.039600
   3210 C2        -38.1670   24.4450    2.7330 c3       535 PE       0.039600
   3211 H11       -39.2570   23.6050    4.5130 hc       536 PE      -0.019800
   3212 H12       -38.4370   25.1450    4.8230 hc       536 PE      -0.019800
   3213 H21       -40.8070   25.0450    4.9430 hc       536 PE      -0.019800
   3214 H22       -41.0070   24.7850    3.2030 hc       536 PE      -0.019800
   3215 C1        -38.9870   24.5650    4.0630 c3       536 PE       0.039600
   3216 C2        -40.3670   25.2550    3.9630 c3       536 PE       0.039600
   3217 H11        40.1130   27.1750    4.7630 hc       537 PE      -0.019800
   3218 H12        40.3230   27.0450    2.9530 hc       537 PE      -0.019800
   3219 H21        37.4830   26.9350    4.1830 hc       537 PE      -0.019800
   3220 H22        37.8930   27.2350    2.6130 hc       537 PE      -0.019800
   3221 C1         39.7130   26.7850    3.8230 c3       537 PE       0.039600
   3222 C2         38.2730   27.4450    3.6230 c3       537 PE       0.039600
   3223 H11        38.4430   29.2550    4.9630 hc       538 PE      -0.019800
   3224 H12        38.8430   29.5850    3.2430 hc       538 PE      -0.019800
   3225 H21        36.0030   29.0850    4.5130 hc       538 PE      -0.019800
   3226 H22        36.2030   29.2650    2.9130 hc       538 PE      -0.019800
   3227 C1         38.1630   29.0450    3.9230 c3       538 PE       0.039600
   3228 C2         36.6730   29.6350    3.8330 c3       538 PE       0.039600
   3229 H11        37.3330   31.3950    4.8130 hc       539 PE      -0.019800
   3230 H12        37.1830   31.6450    3.0630 hc       539 PE      -0.019800
   3231 H21        34.8330   31.1150    4.8830 hc       539 PE      -0.019800
   3232 H22        34.6930   31.4350    3.2330 hc       539 PE      -0.019800
   3233 C1         36.7330   31.1650    3.9330 c3       539 PE       0.039600
   3234 C2         35.3230   31.6950    4.0830 c3       539 PE       0.039600
   3235 H11        35.6730   33.4150    5.3330 hc       540 PE      -0.019800
   3236 H12        35.8530   33.6450    3.5730 hc       540 PE      -0.019800
   3237 H21        32.9930   33.0150    4.7330 hc       540 PE      -0.019800
   3238 H22        33.6330   34.6150    4.7930 hc       540 PE      -0.019800
   3239 C1         35.2430   33.1750    4.3530 c3       540 PE       0.039600
   3240 C2         33.7130   33.6750    4.2430 c3       540 PE       0.039600
   3241 H11        38.3130  -15.7150   -8.2470 hc       541 PE      -0.019800
   3242 H12        38.9030  -17.2250   -7.6970 hc       541 PE      -0.019800
   3243 H21        36.7930  -18.4350   -7.9470 hc       541 PE      -0.019800
   3244 H22        36.9730  -17.4250   -9.4070 hc       541 PE      -0.019800
   3245 C1         37.9830  -16.6350   -7.7470 c3       541 PE       0.039600
   3246 C2         36.7330  -17.4150   -8.3370 c3       541 PE       0.039600
   3247 H11        35.2030  -16.6750   -7.0070 hc       542 PE      -0.019800
   3248 H12        35.3730  -15.6950   -8.3670 hc       542 PE      -0.019800
   3249 H21        34.3130  -18.5550   -8.6770 hc       542 PE      -0.019800
   3250 H22        34.4030  -17.3450   -9.9170 hc       542 PE      -0.019800
   3251 C1         35.3630  -16.7550   -8.0870 c3       542 PE       0.039600
   3252 C2         34.2530  -17.4750   -8.8370 c3       542 PE       0.039600
   3253 H11        32.7230  -16.7650   -7.3170 hc       543 PE      -0.019800
   3254 H12        32.5730  -16.1550   -8.9670 hc       543 PE      -0.019800
   3255 H21        31.9630  -18.9450   -7.8970 hc       543 PE      -0.019800
   3256 H22        32.0830  -18.4950   -9.6770 hc       543 PE      -0.019800
   3257 C1         32.7930  -17.0550   -8.3670 c3       543 PE       0.039600
   3258 C2         31.7930  -18.1850   -8.6670 c3       543 PE       0.039600
   3259 H11        30.2730  -17.3550   -7.4870 hc       544 PE      -0.019800
   3260 H12        30.1430  -16.8850   -9.2370 hc       544 PE      -0.019800
   3261 H21        29.3130  -19.5750   -7.8970 hc       544 PE      -0.019800
   3262 H22        29.4030  -19.3950   -9.6170 hc       544 PE      -0.019800
   3263 C1         30.3030  -17.7150   -8.5270 c3       544 PE       0.039600
   3264 C2         29.2330  -18.8250   -8.6870 c3       544 PE       0.039600
   3265 H11        27.7330  -17.7450   -7.6870 hc       545 PE      -0.019800
   3266 H12        27.6630  -17.5050   -9.4770 hc       545 PE      -0.019800
   3267 H21        26.8530  -20.1450   -8.0270 hc       545 PE      -0.019800
   3268 H22        26.7530  -19.8050   -9.7470 hc       545 PE      -0.019800
   3269 C1         27.8030  -18.2350   -8.6670 c3       545 PE       0.039600
   3270 C2         26.6830  -19.3450   -8.7570 c3       545 PE       0.039600
   3271 H11        25.2830  -18.1150   -7.7370 hc       546 PE      -0.019800
   3272 H12        24.9930  -18.1450   -9.5170 hc       546 PE      -0.019800
   3273 H21        24.3430  -20.3050   -7.5370 hc       546 PE      -0.019800
   3274 H22        24.3230  -20.5450   -9.2570 hc       546 PE      -0.019800
   3275 C1         25.2330  -18.7450   -8.6270 c3       546 PE       0.039600
   3276 C2         24.1930  -19.7750   -8.4870 c3       546 PE       0.039600
   3277 H11        22.6230  -18.4350   -7.5970 hc       547 PE      -0.019800
   3278 H12        22.5330  -18.5750   -9.3070 hc       547 PE      -0.019800
   3279 H21        21.7730  -20.9450   -7.3970 hc       547 PE      -0.019800
   3280 H22        21.6130  -20.8150   -9.1970 hc       547 PE      -0.019800
   3281 C1         22.7230  -19.1750   -8.4070 c3       547 PE       0.039600
   3282 C2         21.6130  -20.2650   -8.2470 c3       547 PE       0.039600
   3283 H11        20.1830  -19.1450   -7.1170 hc       548 PE      -0.019800
   3284 H12        19.9930  -18.9250   -8.8970 hc       548 PE      -0.019800
   3285 H21        19.1130  -21.1950   -7.2070 hc       548 PE      -0.019800
   3286 H22        19.3930  -21.5750   -8.7870 hc       548 PE      -0.019800
   3287 C1         20.2030  -19.6450   -8.0970 c3       548 PE       0.039600
   3288 C2         19.1130  -20.7050   -8.1870 c3       548 PE       0.039600
   3289 H11        17.6030  -19.2550   -7.8470 hc       549 PE      -0.019800
   3290 H12        17.6530  -19.6550   -9.5270 hc       549 PE      -0.019800
   3291 H21        16.7630  -21.8450   -7.6570 hc       549 PE      -0.019800
   3292 H22        16.6330  -21.7050   -9.3870 hc       549 PE      -0.019800
   3293 C1         17.7430  -20.1050   -8.5270 c3       549 PE       0.039600
   3294 C2         16.6130  -21.1150   -8.4670 c3       549 PE       0.039600
   3295 H11        15.1230  -19.8750   -7.3770 hc       550 PE      -0.019800
   3296 H12        15.0230  -19.5550   -8.9870 hc       550 PE      -0.019800
   3297 H21        13.9830  -22.2750   -7.7370 hc       550 PE      -0.019800
   3298 H22        14.0730  -21.8950   -9.3870 hc       550 PE      -0.019800
   3299 C1         15.1730  -20.4250   -8.3270 c3       550 PE       0.039600
   3300 C2         13.9730  -21.4050   -8.4070 c3       550 PE       0.039600
   3301 H11        12.3130  -20.3350   -7.3570 hc       551 PE      -0.019800
   3302 H12        12.4630  -19.9950   -9.0970 hc       551 PE      -0.019800
   3303 H21        11.4830  -22.3150   -7.4170 hc       551 PE      -0.019800
   3304 H22        11.7930  -22.6450   -9.1770 hc       551 PE      -0.019800
   3305 C1         12.5830  -20.7650   -8.3270 c3       551 PE       0.039600
   3306 C2         11.5330  -21.8750   -8.4270 c3       551 PE       0.039600
   3307 H11        10.0230  -20.2450   -8.2470 hc       552 PE      -0.019800
   3308 H12        10.1330  -20.9950   -9.8870 hc       552 PE      -0.019800
   3309 H21         9.0530  -22.4150   -7.3670 hc       552 PE      -0.019800
   3310 H22         9.1330  -22.9550   -9.0470 hc       552 PE      -0.019800
   3311 C1         10.1330  -21.1850   -8.8070 c3       552 PE       0.039600
   3312 C2          8.9830  -22.0750   -8.4170 c3       552 PE       0.039600
   3313 H11         7.3830  -20.6950   -7.8770 hc       553 PE      -0.019800
   3314 H12         7.6130  -20.9850   -9.6370 hc       553 PE      -0.019800
   3315 H21         6.5930  -23.1250   -7.5870 hc       553 PE      -0.019800
   3316 H22         6.6930  -23.3150   -9.2970 hc       553 PE      -0.019800
   3317 C1          7.6130  -21.4550   -8.6470 c3       553 PE       0.039600
   3318 C2          6.4930  -22.5650   -8.5270 c3       553 PE       0.039600
   3319 H11         4.8630  -21.3050   -7.7070 hc       554 PE      -0.019800
   3320 H12         4.8630  -21.3650   -9.4470 hc       554 PE      -0.019800
   3321 H21         3.9530  -23.6550   -7.5970 hc       554 PE      -0.019800
   3322 H22         4.0230  -23.7450   -9.3670 hc       554 PE      -0.019800
   3323 C1          5.0130  -21.9850   -8.5570 c3       554 PE       0.039600
   3324 C2          3.9430  -23.0550   -8.5170 c3       554 PE       0.039600
   3325 H11         2.2530  -21.8750   -7.5870 hc       555 PE      -0.019800
   3326 H12         2.4030  -21.8550   -9.3870 hc       555 PE      -0.019800
   3327 H21         1.3930  -24.0850   -7.6170 hc       555 PE      -0.019800
   3328 H22         1.6230  -24.2550   -9.3070 hc       555 PE      -0.019800
   3329 C1          2.4930  -22.4650   -8.4770 c3       555 PE       0.039600
   3330 C2          1.3830  -23.5050   -8.5470 c3       555 PE       0.039600
   3331 H11        -0.0570  -22.0150   -8.1470 hc       556 PE      -0.019800
   3332 H12        -0.0270  -22.5550   -9.8470 hc       556 PE      -0.019800
   3333 H21        -1.1370  -24.2850   -7.5270 hc       556 PE      -0.019800
   3334 H22        -0.9570  -24.7850   -9.1470 hc       556 PE      -0.019800
   3335 C1         -0.0270  -22.8950   -8.8070 c3       556 PE       0.039600
   3336 C2         -1.1770  -23.8950   -8.5470 c3       556 PE       0.039600
   3337 H11        -2.7870  -22.3950   -8.1170 hc       557 PE      -0.019800
   3338 H12        -2.7570  -22.7750   -9.7270 hc       557 PE      -0.019800
   3339 H21        -3.5370  -24.7650   -7.4570 hc       557 PE      -0.019800
   3340 H22        -3.5870  -25.1150   -9.2670 hc       557 PE      -0.019800
   3341 C1         -2.6170  -23.2750   -8.7570 c3       557 PE       0.039600
   3342 C2         -3.7070  -24.3750   -8.4670 c3       557 PE       0.039600
   3343 H11        -5.3170  -23.0150   -7.7770 hc       558 PE      -0.019800
   3344 H12        -5.0770  -23.2150   -9.5670 hc       558 PE      -0.019800
   3345 H21        -5.9470  -25.3550   -7.4970 hc       558 PE      -0.019800
   3346 H22        -6.1470  -25.5150   -9.1770 hc       558 PE      -0.019800
   3347 C1         -5.0470  -23.7050   -8.5870 c3       558 PE       0.039600
   3348 C2         -6.1470  -24.7550   -8.3870 c3       558 PE       0.039600
   3349 H11        -7.7070  -23.2850   -7.6870 hc       559 PE      -0.019800
   3350 H12        -7.6970  -23.4850   -9.3270 hc       559 PE      -0.019800
   3351 H21        -8.8770  -25.3850   -7.2370 hc       559 PE      -0.019800
   3352 H22        -8.6070  -25.9950   -8.7670 hc       559 PE      -0.019800
   3353 C1         -7.5570  -24.0850   -8.4170 c3       559 PE       0.039600
   3354 C2         -8.7770  -25.0350   -8.2670 c3       559 PE       0.039600
   3355 H11       -10.2870  -23.5350   -7.7870 hc       560 PE      -0.019800
   3356 H12       -10.1470  -23.9750   -9.4870 hc       560 PE      -0.019800
   3357 H21       -11.2970  -26.0350   -7.4570 hc       560 PE      -0.019800
   3358 H22       -11.3170  -26.1550   -9.1770 hc       560 PE      -0.019800
   3359 C1        -10.2370  -24.3850   -8.4770 c3       560 PE       0.039600
   3360 C2        -11.3870  -25.4150   -8.3670 c3       560 PE       0.039600
   3361 H11       -12.9470  -24.1050   -7.3870 hc       561 PE      -0.019800
   3362 H12       -12.9670  -24.1250   -9.1670 hc       561 PE      -0.019800
   3363 H21       -13.6270  -26.3950   -7.1970 hc       561 PE      -0.019800
   3364 H22       -13.8670  -26.5750   -8.9070 hc       561 PE      -0.019800
   3365 C1        -12.8170  -24.7450   -8.2670 c3       561 PE       0.039600
   3366 C2        -13.9170  -25.8350   -8.0970 c3       561 PE       0.039600
   3367 H11       -15.4970  -24.6450   -7.1870 hc       562 PE      -0.019800
   3368 H12       -15.4070  -24.4650   -8.9370 hc       562 PE      -0.019800
   3369 H21       -16.4370  -26.9150   -7.2970 hc       562 PE      -0.019800
   3370 H22       -16.4970  -26.6750   -9.1170 hc       562 PE      -0.019800
   3371 C1        -15.3570  -25.2050   -8.1170 c3       562 PE       0.039600
   3372 C2        -16.5170  -26.2050   -8.1270 c3       562 PE       0.039600
   3373 H11       -18.1070  -24.8250   -7.3470 hc       563 PE      -0.019800
   3374 H12       -17.9570  -24.9550   -9.0270 hc       563 PE      -0.019800
   3375 H21       -19.1770  -27.2650   -7.3370 hc       563 PE      -0.019800
   3376 H22       -18.9370  -27.2950   -9.0870 hc       563 PE      -0.019800
   3377 C1        -17.9470  -25.5850   -8.1270 c3       563 PE       0.039600
   3378 C2        -19.1570  -26.6350   -8.2370 c3       563 PE       0.039600
   3379 H11       -20.8270  -25.3350   -7.4370 hc       564 PE      -0.019800
   3380 H12       -20.8670  -25.4650   -9.1870 hc       564 PE      -0.019800
   3381 H21       -21.6070  -27.8550   -7.4870 hc       564 PE      -0.019800
   3382 H22       -21.4570  -27.7550   -9.2570 hc       564 PE      -0.019800
   3383 C1        -20.6070  -26.0150   -8.2770 c3       564 PE       0.039600
   3384 C2        -21.6870  -27.1750   -8.3470 c3       564 PE       0.039600
   3385 H11       -23.2970  -26.0150   -7.6270 hc       565 PE      -0.019800
   3386 H12       -23.0970  -26.0350   -9.3770 hc       565 PE      -0.019800
   3387 H21       -24.4670  -28.2750   -7.7070 hc       565 PE      -0.019800
   3388 H22       -23.8970  -28.4150   -9.3470 hc       565 PE      -0.019800
   3389 C1        -23.1070  -26.6650   -8.4870 c3       565 PE       0.039600
   3390 C2        -24.2870  -27.6950   -8.6170 c3       565 PE       0.039600
   3391 H11       -25.5370  -26.1650   -8.2970 hc       566 PE      -0.019800
   3392 H12       -25.5470  -26.5350   -9.9670 hc       566 PE      -0.019800
   3393 H21       -26.7970  -28.5650   -7.9170 hc       566 PE      -0.019800
   3394 H22       -26.7870  -28.7450   -9.6370 hc       566 PE      -0.019800
   3395 C1        -25.5170  -27.0250   -8.9870 c3       566 PE       0.039600
   3396 C2        -26.8570  -27.9850   -8.8470 c3       566 PE       0.039600
   3397 H11       -28.1770  -26.4250   -7.9470 hc       567 PE      -0.019800
   3398 H12       -28.3170  -26.7250   -9.7470 hc       567 PE      -0.019800
   3399 H21       -29.2970  -28.8150   -7.7670 hc       567 PE      -0.019800
   3400 H22       -29.3770  -28.7050   -9.4470 hc       567 PE      -0.019800
   3401 C1        -28.1570  -27.1650   -8.7570 c3       567 PE       0.039600
   3402 C2        -29.3470  -28.0650   -8.5570 c3       567 PE       0.039600
   3403 H11       -30.6270  -26.6650   -7.5370 hc       568 PE      -0.019800
   3404 H12       -30.7070  -26.4450   -9.2170 hc       568 PE      -0.019800
   3405 H21       -31.9870  -28.9750   -8.0270 hc       568 PE      -0.019800
   3406 H22       -31.8170  -28.5050   -9.6770 hc       568 PE      -0.019800
   3407 C1        -30.6670  -27.2450   -8.4670 c3       568 PE       0.039600
   3408 C2        -31.9370  -28.0850   -8.6670 c3       568 PE       0.039600
   3409 H11       -33.2870  -26.9950   -7.4570 hc       569 PE      -0.019800
   3410 H12       -33.1970  -26.4550   -9.1570 hc       569 PE      -0.019800
   3411 H21       -34.1970  -29.3650   -8.8670 hc       569 PE      -0.019800
   3412 H22       -34.8970  -28.0750   -9.7070 hc       569 PE      -0.019800
   3413 C1        -33.2070  -27.3350   -8.4970 c3       569 PE       0.039600
   3414 C2        -34.4670  -28.3150   -8.7270 c3       569 PE       0.039600
   3415 H11       -35.2370  -28.5750   -6.6370 hc       570 PE      -0.019800
   3416 H12       -35.7770  -27.0850   -7.4770 hc       570 PE      -0.019800
   3417 H21       -36.7370  -29.6850   -8.7170 hc       570 PE      -0.019800
   3418 H22       -37.6670  -28.7750   -7.4270 hc       570 PE      -0.019800
   3419 C1        -35.5370  -28.1450   -7.5970 c3       570 PE       0.039600
   3420 C2        -36.8470  -28.7550   -8.1570 c3       570 PE       0.039600
   3421 H11         5.4530   -9.4350    1.4230 hc       571 PE      -0.019800
   3422 H12         5.5730  -11.1050    1.0730 hc       571 PE      -0.019800
   3423 H21         6.5730   -9.0250   -0.9570 hc       571 PE      -0.019800
   3424 H22         6.9230  -10.8350   -0.8070 hc       571 PE      -0.019800
   3425 C1          5.4530  -10.1350    0.5830 c3       571 PE       0.039600
   3426 C2          6.7330   -9.8850   -0.2970 c3       571 PE       0.039600
   3427 H11         7.9130   -8.5050    0.9830 hc       572 PE      -0.019800
   3428 H12         7.9630  -10.2250    1.4730 hc       572 PE      -0.019800
   3429 H21         9.4530   -9.0550   -1.0370 hc       572 PE      -0.019800
   3430 H22         9.4730  -10.6850   -0.4770 hc       572 PE      -0.019800
   3431 C1          7.9830   -9.5350    0.6130 c3       572 PE       0.039600
   3432 C2          9.3330   -9.6550   -0.1270 c3       572 PE       0.039600
   3433 H11        10.3430   -8.2850    1.3130 hc       573 PE      -0.019800
   3434 H12        10.6230   -9.8850    1.6130 hc       573 PE      -0.019800
   3435 H21        11.7630   -8.6850   -0.9270 hc       573 PE      -0.019800
   3436 H22        12.0230  -10.2550   -0.3070 hc       573 PE      -0.019800
   3437 C1         10.5130   -9.2150    0.7530 c3       573 PE       0.039600
   3438 C2         11.8530   -9.2250    0.0330 c3       573 PE       0.039600
   3439 H11        12.8030   -7.6350    1.1230 hc       574 PE      -0.019800
   3440 H12        13.0430   -9.3750    1.7830 hc       574 PE      -0.019800
   3441 H21        14.1730   -8.3650   -0.8670 hc       574 PE      -0.019800
   3442 H22        14.6330   -9.9250   -0.0570 hc       574 PE      -0.019800
   3443 C1         12.9830   -8.7050    0.9130 c3       574 PE       0.039600
   3444 C2         14.3430   -8.8750    0.0930 c3       574 PE       0.039600
   3445 H11        15.2430   -7.0950    1.1030 hc       575 PE      -0.019800
   3446 H12        15.7830   -8.6550    1.7030 hc       575 PE      -0.019800
   3447 H21        16.4930   -7.3450   -0.9470 hc       575 PE      -0.019800
   3448 H22        16.8930   -9.0350   -0.4570 hc       575 PE      -0.019800
   3449 C1         15.4730   -8.1250    0.7930 c3       575 PE       0.039600
   3450 C2         16.6830   -8.0150   -0.1070 c3       575 PE       0.039600
   3451 H11        17.8130   -6.6850    1.2430 hc       576 PE      -0.019800
   3452 H12        18.2830   -8.3050    1.4030 hc       576 PE      -0.019800
   3453 H21        19.0230   -6.7750   -1.1570 hc       576 PE      -0.019800
   3454 H22        19.6130   -8.3550   -0.5270 hc       576 PE      -0.019800
   3455 C1         17.9630   -7.5850    0.6430 c3       576 PE       0.039600
   3456 C2         19.1930   -7.3750   -0.2570 c3       576 PE       0.039600
   3457 H11        20.1330   -5.7350    1.0230 hc       577 PE      -0.019800
   3458 H12        20.5430   -7.4050    1.5130 hc       577 PE      -0.019800
   3459 H21        21.6130   -6.2850   -1.1670 hc       577 PE      -0.019800
   3460 H22        21.7630   -7.8250   -0.4770 hc       577 PE      -0.019800
   3461 C1         20.3630   -6.7450    0.6530 c3       577 PE       0.039600
   3462 C2         21.6930   -6.7750   -0.1870 c3       577 PE       0.039600
   3463 H11        22.7830   -5.2650    1.0130 hc       578 PE      -0.019800
   3464 H12        23.0330   -6.9950    1.5430 hc       578 PE      -0.019800
   3465 H21        24.1330   -5.6950   -0.9470 hc       578 PE      -0.019800
   3466 H22        24.4930   -7.3750   -0.3270 hc       578 PE      -0.019800
   3467 C1         22.9430   -6.2950    0.6930 c3       578 PE       0.039600
   3468 C2         24.3130   -6.3250   -0.0670 c3       578 PE       0.039600
   3469 H11        25.2430   -4.9150    1.1430 hc       579 PE      -0.019800
   3470 H12        25.6830   -6.6450    1.4730 hc       579 PE      -0.019800
   3471 H21        26.6130   -5.0050   -0.9670 hc       579 PE      -0.019800
   3472 H22        27.0630   -6.6450   -0.4570 hc       579 PE      -0.019800
   3473 C1         25.5030   -5.8850    0.7030 c3       579 PE       0.039600
   3474 C2         26.7830   -5.6450   -0.0870 c3       579 PE       0.039600
   3475 H11        27.8430   -3.8850    0.8330 hc       580 PE      -0.019800
   3476 H12        28.0130   -5.3650    1.7030 hc       580 PE      -0.019800
   3477 H21        29.0230   -4.6850   -1.1370 hc       580 PE      -0.019800
   3478 H22        29.5930   -6.0650   -0.2670 hc       580 PE      -0.019800
   3479 C1         27.9330   -4.9750    0.6830 c3       580 PE       0.039600
   3480 C2         29.2130   -5.0450   -0.1170 c3       580 PE       0.039600
   3481 H11        30.0030   -3.2050    0.7430 hc       581 PE      -0.019800
   3482 H12        30.5330   -4.6450    1.5230 hc       581 PE      -0.019800
   3483 H21        31.5430   -3.7550   -1.1170 hc       581 PE      -0.019800
   3484 H22        31.9230   -5.3850   -0.4570 hc       581 PE      -0.019800
   3485 C1         30.3430   -4.2350    0.5330 c3       581 PE       0.039600
   3486 C2         31.6830   -4.3450   -0.1970 c3       581 PE       0.039600
   3487 H11        32.6930   -2.7750    0.9530 hc       582 PE      -0.019800
   3488 H12        33.2030   -4.3050    1.5330 hc       582 PE      -0.019800
   3489 H21        33.9930   -3.1050   -1.2370 hc       582 PE      -0.019800
   3490 H22        34.7230   -4.5350   -0.4270 hc       582 PE      -0.019800
   3491 C1         32.8930   -3.7950    0.6130 c3       582 PE       0.039600
   3492 C2         34.1930   -3.5850   -0.2770 c3       582 PE       0.039600
   3493 H11        34.9630   -1.5350    0.1330 hc       583 PE      -0.019800
   3494 H12        35.3930   -2.7250    1.3830 hc       583 PE      -0.019800
   3495 H21        36.6130   -2.6050   -1.4170 hc       583 PE      -0.019800
   3496 H22        36.9230   -3.8550   -0.2670 hc       583 PE      -0.019800
   3497 C1         35.2930   -2.5650    0.3030 c3       583 PE       0.039600
   3498 C2         36.6530   -2.7950   -0.3370 c3       583 PE       0.039600
   3499 H11        37.2330   -0.7950    0.0830 hc       584 PE      -0.019800
   3500 H12        37.5630   -1.9550    1.3230 hc       584 PE      -0.019800
   3501 H21        39.4630   -2.9350    0.2330 hc       584 PE      -0.019800
   3502 H22        39.7930   -1.3350    0.0930 hc       584 PE      -0.019800
   3503 C1         37.6630   -1.7950    0.2430 c3       584 PE       0.039600
   3504 C2         39.0730   -2.0550   -0.2970 c3       584 PE       0.039600
   3505 H11       -41.4770   -3.1650   -1.9870 hc       585 PE      -0.019800
   3506 H12       -41.2470   -1.4750   -2.4070 hc       585 PE      -0.019800
   3507 H21       -38.7570   -3.3150   -1.6970 hc       585 PE      -0.019800
   3508 H22       -38.6970   -1.5550   -2.0970 hc       585 PE      -0.019800
   3509 C1        -40.8370   -2.2950   -1.7970 c3       585 PE       0.039600
   3510 C2        -39.2370   -2.4950   -2.2570 c3       585 PE       0.039600
   3511 H11       -39.4170   -2.2050   -4.4170 hc       586 PE      -0.019800
   3512 H12       -38.0170   -3.1050   -3.8070 hc       586 PE      -0.019800
   3513 H21       -39.9670   -4.9150   -3.2170 hc       586 PE      -0.019800
   3514 H22       -39.1670   -4.8950   -4.8270 hc       586 PE      -0.019800
   3515 C1        -39.0970   -2.9650   -3.6870 c3       586 PE       0.039600
   3516 C2        -39.7670   -4.3150   -4.1170 c3       586 PE       0.039600
   3517 H11        38.4830   -3.0250   -4.3470 hc       587 PE      -0.019800
   3518 H12        38.8730   -3.9950   -5.8070 hc       587 PE      -0.019800
   3519 H21        37.7630   -5.0850   -3.2570 hc       587 PE      -0.019800
   3520 H22        38.1930   -5.9950   -4.7670 hc       587 PE      -0.019800
   3521 C1         38.8330   -3.9950   -4.7070 c3       587 PE       0.039600
   3522 C2         37.8230   -5.0450   -4.3470 c3       587 PE       0.039600
   3523 H11        36.2530   -3.7750   -4.9570 hc       588 PE      -0.019800
   3524 H12        36.5830   -5.1950   -6.0170 hc       588 PE      -0.019800
   3525 H21        35.3730   -4.9650   -3.2270 hc       588 PE      -0.019800
   3526 H22        35.4730   -6.5450   -3.9770 hc       588 PE      -0.019800
   3527 C1         36.4630   -4.8450   -4.9870 c3       588 PE       0.039600
   3528 C2         35.3130   -5.4850   -4.1870 c3       588 PE       0.039600
   3529 H11        33.7130   -4.0950   -4.7370 hc       589 PE      -0.019800
   3530 H12        33.9030   -5.4650   -5.8170 hc       589 PE      -0.019800
   3531 H21        33.1430   -5.9850   -2.9170 hc       589 PE      -0.019800
   3532 H22        32.9330   -7.0550   -4.2470 hc       589 PE      -0.019800
   3533 C1         33.9630   -5.1650   -4.7670 c3       589 PE       0.039600
   3534 C2         32.9030   -5.9950   -3.9870 c3       589 PE       0.039600
   3535 H11        31.3630   -4.3950   -3.9670 hc       590 PE      -0.019800
   3536 H12        31.3030   -5.5850   -5.3270 hc       590 PE      -0.019800
   3537 H21        30.6830   -5.8850   -2.4070 hc       590 PE      -0.019800
   3538 H22        30.8830   -7.3150   -3.3770 hc       590 PE      -0.019800
   3539 C1         31.5530   -5.4350   -4.2670 c3       590 PE       0.039600
   3540 C2         30.5930   -6.2650   -3.4270 c3       590 PE       0.039600
   3541 H11        28.7330   -5.1250   -3.2570 hc       591 PE      -0.019800
   3542 H12        28.9230   -5.6950   -4.8070 hc       591 PE      -0.019800
   3543 H21        28.3730   -7.2650   -2.2170 hc       591 PE      -0.019800
   3544 H22        28.6330   -8.1350   -3.6570 hc       591 PE      -0.019800
   3545 C1         29.1230   -6.0150   -3.7770 c3       591 PE       0.039600
   3546 C2         28.2230   -7.1850   -3.3070 c3       591 PE       0.039600
   3547 H11        26.2430   -7.7250   -2.8270 hc       592 PE      -0.019800
   3548 H12        26.4730   -5.9550   -3.2570 hc       592 PE      -0.019800
   3549 H21        26.7030   -6.4150   -5.5170 hc       592 PE      -0.019800
   3550 H22        25.2930   -7.1950   -5.0270 hc       592 PE      -0.019800
   3551 C1         26.7430   -6.9950   -3.4770 c3       592 PE       0.039600
   3552 C2         26.3830   -7.2850   -4.9270 c3       592 PE       0.039600
   3553 H11        27.7330   -8.9150   -5.2670 hc       593 PE      -0.019800
   3554 H12        25.9230   -9.2750   -5.1770 hc       593 PE      -0.019800
   3555 H21        25.7530   -8.0450   -7.3870 hc       593 PE      -0.019800
   3556 H22        26.6230   -9.6250   -7.4970 hc       593 PE      -0.019800
   3557 C1         26.7230   -8.6250   -5.5670 c3       593 PE       0.039600
   3558 C2         26.6730   -8.5850   -7.1670 c3       593 PE       0.039600
   3559 H11        27.9230   -7.9650   -8.8570 hc       594 PE      -0.019800
   3560 H12        27.8430   -6.7050   -7.6370 hc       594 PE      -0.019800
   3561 H21        29.3530   -9.4750   -7.3870 hc       594 PE      -0.019800
   3562 H22        29.4130   -8.1550   -6.2670 hc       594 PE      -0.019800
   3563 C1         27.9130   -7.7950   -7.7670 c3       594 PE       0.039600
   3564 C2         29.2830   -8.3750   -7.3270 c3       594 PE       0.039600
   3565 H11        30.2930   -8.1350   -9.1770 hc       595 PE      -0.019800
   3566 H12        30.3330   -6.6850   -8.1770 hc       595 PE      -0.019800
   3567 H21        32.0630   -9.1650   -7.7170 hc       595 PE      -0.019800
   3568 H22        31.9530   -8.0150   -6.5370 hc       595 PE      -0.019800
   3569 C1         30.3630   -7.7750   -8.1470 c3       595 PE       0.039600
   3570 C2         31.7730   -8.1150   -7.6070 c3       595 PE       0.039600
   3571 H11        32.7530   -7.4550   -9.4270 hc       596 PE      -0.019800
   3572 H12        32.7930   -6.2250   -8.1870 hc       596 PE      -0.019800
   3573 H21        34.6930   -8.6650   -8.1770 hc       596 PE      -0.019800
   3574 H22        34.3530   -7.4450   -6.8570 hc       596 PE      -0.019800
   3575 C1         32.9430   -7.3050   -8.3570 c3       596 PE       0.039600
   3576 C2         34.3730   -7.6450   -7.9370 c3       596 PE       0.039600
   3577 H11        35.2630   -6.7250   -9.5570 hc       597 PE      -0.019800
   3578 H12        35.2230   -5.6950   -8.2170 hc       597 PE      -0.019800
   3579 H21        37.1130   -7.9250   -8.9070 hc       597 PE      -0.019800
   3580 H22        37.0830   -7.4850   -7.1770 hc       597 PE      -0.019800
   3581 C1         35.4030   -6.7550   -8.4770 c3       597 PE       0.039600
   3582 C2         36.9030   -7.1150   -8.1970 c3       597 PE       0.039600
   3583 H11        37.8430   -5.7450   -9.5270 hc       598 PE      -0.019800
   3584 H12        37.5030   -5.0450   -8.0170 hc       598 PE      -0.019800
   3585 H21        39.6930   -7.2050   -8.6670 hc       598 PE      -0.019800
   3586 H22        39.2730   -6.5550   -6.9670 hc       598 PE      -0.019800
   3587 C1         37.8430   -5.9850   -8.4570 c3       598 PE       0.039600
   3588 C2         39.3230   -6.3750   -8.0470 c3       598 PE       0.039600
   3589 H11       -39.7270   -4.8850   -9.3170 hc       599 PE      -0.019800
   3590 H12       -40.1770   -4.3950   -7.6570 hc       599 PE      -0.019800
   3591 H21       -37.7870   -6.2250   -8.3570 hc       599 PE      -0.019800
   3592 H22       -38.5270   -6.0150   -6.8070 hc       599 PE      -0.019800
   3593 C1        -39.7470   -5.1950   -8.2670 c3       599 PE       0.039600
   3594 C2        -38.3270   -5.4850   -7.7470 c3       599 PE       0.039600
   3595 H11       -38.0870   -3.4150   -7.2070 hc       600 PE      -0.019800
   3596 H12       -36.7170   -4.5150   -6.8570 hc       600 PE      -0.019800
   3597 H21       -36.2070   -4.2450   -9.4670 hc       600 PE      -0.019800
   3598 H22       -37.8470   -3.7650   -9.8770 hc       600 PE      -0.019800
   3599 C1        -37.4770   -4.2350   -7.5970 c3       600 PE       0.039600
   3600 C2        -37.0970   -3.7450   -9.0770 c3       600 PE       0.039600
   3601 H11         7.4730   -0.3950   -0.0770 hc       601 PE      -0.019800
   3602 H12         7.3030   -1.9350   -0.9670 hc       601 PE      -0.019800
   3603 H21         9.0230   -0.2450   -1.8870 hc       601 PE      -0.019800
   3604 H22         9.6830   -1.8650   -1.5970 hc       601 PE      -0.019800
   3605 C1          7.9730   -1.3450   -0.3270 c3       601 PE       0.039600
   3606 C2          9.2630   -0.9850   -1.1070 c3       601 PE       0.039600
   3607 H11        10.1330    0.7350   -0.1070 hc       602 PE      -0.019800
   3608 H12        10.4030   -0.8550    0.7630 hc       602 PE      -0.019800
   3609 H21        11.7230    0.1450   -1.7370 hc       602 PE      -0.019800
   3610 H22        12.0530   -1.4150   -1.0270 hc       602 PE      -0.019800
   3611 C1         10.3230   -0.3450   -0.2070 c3       602 PE       0.039600
   3612 C2         11.7130   -0.3950   -0.7870 c3       602 PE       0.039600
   3613 H11        12.5630    1.2350    0.5130 hc       603 PE      -0.019800
   3614 H12        12.9930   -0.3950    1.0330 hc       603 PE      -0.019800
   3615 H21        14.0430    0.8850   -1.4070 hc       603 PE      -0.019800
   3616 H22        14.4530   -0.8050   -0.8870 hc       603 PE      -0.019800
   3617 C1         12.8330    0.2350    0.1530 c3       603 PE       0.039600
   3618 C2         14.2430    0.2150   -0.5670 c3       603 PE       0.039600
   3619 H11        15.1230    1.7850    0.6930 hc       604 PE      -0.019800
   3620 H12        15.5930    0.1750    1.2730 hc       604 PE      -0.019800
   3621 H21        16.5230    1.5550   -1.2370 hc       604 PE      -0.019800
   3622 H22        16.9830   -0.0750   -0.8570 hc       604 PE      -0.019800
   3623 C1         15.3830    0.7750    0.3730 c3       604 PE       0.039600
   3624 C2         16.6930    0.8750   -0.3870 c3       604 PE       0.039600
   3625 H11        17.6830    2.4650    0.9630 hc       605 PE      -0.019800
   3626 H12        18.2430    0.8350    1.3330 hc       605 PE      -0.019800
   3627 H21        18.8730    2.5450   -1.0270 hc       605 PE      -0.019800
   3628 H22        19.4830    0.8650   -0.8570 hc       605 PE      -0.019800
   3629 C1         17.9130    1.4950    0.5230 c3       605 PE       0.039600
   3630 C2         19.1430    1.7550   -0.3170 c3       605 PE       0.039600
   3631 H11        20.0330    3.0950    1.1230 hc       606 PE      -0.019800
   3632 H12        20.5830    1.4850    1.3130 hc       606 PE      -0.019800
   3633 H21        21.4030    3.2050   -1.0170 hc       606 PE      -0.019800
   3634 H22        21.7630    1.4550   -0.8470 hc       606 PE      -0.019800
   3635 C1         20.2630    2.1950    0.5430 c3       606 PE       0.039600
   3636 C2         21.5430    2.3750   -0.3070 c3       606 PE       0.039600
   3637 H11        22.6730    3.6650    1.1430 hc       607 PE      -0.019800
   3638 H12        22.9930    1.8650    1.2030 hc       607 PE      -0.019800
   3639 H21        23.9030    3.8750   -1.0870 hc       607 PE      -0.019800
   3640 H22        24.1830    2.2250   -1.0770 hc       607 PE      -0.019800
   3641 C1         22.7930    2.7350    0.5630 c3       607 PE       0.039600
   3642 C2         23.9930    3.0450   -0.3770 c3       607 PE       0.039600
   3643 H11        25.0130    4.2950    1.0830 hc       608 PE      -0.019800
   3644 H12        25.3430    2.5850    1.2330 hc       608 PE      -0.019800
   3645 H21        26.2030    4.4750   -0.9670 hc       608 PE      -0.019800
   3646 H22        26.9230    2.7950   -0.8070 hc       608 PE      -0.019800
   3647 C1         25.2430    3.3950    0.5030 c3       608 PE       0.039600
   3648 C2         26.5230    3.6750   -0.2870 c3       608 PE       0.039600
   3649 H11        27.4430    4.8550    1.3630 hc       609 PE      -0.019800
   3650 H12        28.1030    3.2450    1.1430 hc       609 PE      -0.019800
   3651 H21        28.5830    5.4450   -0.8270 hc       609 PE      -0.019800
   3652 H22        29.2930    3.7650   -0.6870 hc       609 PE      -0.019800
   3653 C1         27.7130    4.1150    0.6030 c3       609 PE       0.039600
   3654 C2         28.8930    4.6350   -0.1470 c3       609 PE       0.039600
   3655 H11        29.6030    5.9350    1.4530 hc       610 PE      -0.019800
   3656 H12        30.1530    4.4250    1.5530 hc       610 PE      -0.019800
   3657 H21        31.2330    6.3650   -0.5570 hc       610 PE      -0.019800
   3658 H22        31.6830    4.6950   -0.4470 hc       610 PE      -0.019800
   3659 C1         29.9930    5.1750    0.7630 c3       610 PE       0.039600
   3660 C2         31.3430    5.5450    0.1630 c3       610 PE       0.039600
   3661 H11        32.1630    6.8950    1.6930 hc       611 PE      -0.019800
   3662 H12        32.7030    5.2550    1.9030 hc       611 PE      -0.019800
   3663 H21        33.4630    7.2950   -0.2070 hc       611 PE      -0.019800
   3664 H22        33.9130    5.5950   -0.4470 hc       611 PE      -0.019800
   3665 C1         32.4230    5.9850    1.1430 c3       611 PE       0.039600
   3666 C2         33.7230    6.3550    0.3130 c3       611 PE       0.039600
   3667 H11        34.6730    7.1450    2.0730 hc       612 PE      -0.019800
   3668 H12        35.0930    5.4950    1.6430 hc       612 PE      -0.019800
   3669 H21        36.3630    6.2850   -0.5270 hc       612 PE      -0.019800
   3670 H22        37.1530    6.5450    1.0430 hc       612 PE      -0.019800
   3671 C1         34.9130    6.4950    1.2330 c3       612 PE       0.039600
   3672 C2         36.2830    6.8350    0.4230 c3       612 PE       0.039600
   3673 H11        35.4230    8.8150   -0.1070 hc       613 PE      -0.019800
   3674 H12        36.6130    8.8450    1.1230 hc       613 PE      -0.019800
   3675 H21        37.4630    8.2950   -1.8870 hc       613 PE      -0.019800
   3676 H22        38.5530    8.4850   -0.5070 hc       613 PE      -0.019800
   3677 C1         36.3830    8.3750    0.1630 c3       613 PE       0.039600
   3678 C2         37.5530    8.7550   -0.8870 c3       613 PE       0.039600
   3679 H11        36.5230   10.5350   -1.5170 hc       614 PE      -0.019800
   3680 H12        37.6330   10.8450   -0.1670 hc       614 PE      -0.019800
   3681 H21        38.5630   10.0250   -3.0270 hc       614 PE      -0.019800
   3682 H22        39.5730   10.7250   -1.7270 hc       614 PE      -0.019800
   3683 C1         37.5130   10.3150   -1.1170 c3       614 PE       0.039600
   3684 C2         38.5730   10.7350   -2.1770 c3       614 PE       0.039600
   3685 H11        37.3330   12.0350   -3.2270 hc       615 PE      -0.019800
   3686 H12        38.3630   12.7850   -1.9670 hc       615 PE      -0.019800
   3687 H21        39.6330   11.7750   -4.6070 hc       615 PE      -0.019800
   3688 H22        40.2330   12.9250   -3.3070 hc       615 PE      -0.019800
   3689 C1         38.3430   12.0650   -2.7970 c3       615 PE       0.039600
   3690 C2         39.3730   12.5550   -3.8770 c3       615 PE       0.039600
   3691 H11        39.7130   14.3250   -5.0270 hc       616 PE      -0.019800
   3692 H12        38.0130   13.6450   -5.2670 hc       616 PE      -0.019800
   3693 H21        39.1630   15.3150   -2.9370 hc       616 PE      -0.019800
   3694 H22        37.5430   14.5950   -2.9270 hc       616 PE      -0.019800
   3695 C1         38.8330   13.8550   -4.5670 c3       616 PE       0.039600
   3696 C2         38.3430   14.9550   -3.5770 c3       616 PE       0.039600
   3697 H11        38.5030   16.5450   -5.1870 hc       617 PE      -0.019800
   3698 H12        37.0830   15.7350   -5.1370 hc       617 PE      -0.019800
   3699 H21        37.8830   17.7350   -3.0170 hc       617 PE      -0.019800
   3700 H22        36.3130   16.8550   -2.8970 hc       617 PE      -0.019800
   3701 C1         37.8030   16.1650   -4.4370 c3       617 PE       0.039600
   3702 C2         37.0830   17.2350   -3.5770 c3       617 PE       0.039600
   3703 H11        36.9130   18.7150   -5.2370 hc       618 PE      -0.019800
   3704 H12        35.6630   17.7150   -5.0670 hc       618 PE      -0.019800
   3705 H21        36.3730   20.0450   -3.0570 hc       618 PE      -0.019800
   3706 H22        35.1030   18.9850   -2.7070 hc       618 PE      -0.019800
   3707 C1         36.3430   18.2750   -4.4170 c3       618 PE       0.039600
   3708 C2         35.6430   19.4050   -3.5670 c3       618 PE       0.039600
   3709 H11        35.2230   20.6750   -5.2770 hc       619 PE      -0.019800
   3710 H12        33.9230   19.4650   -4.9170 hc       619 PE      -0.019800
   3711 H21        34.6630   21.8950   -3.3070 hc       619 PE      -0.019800
   3712 H22        33.2830   20.7650   -2.8970 hc       619 PE      -0.019800
   3713 C1         34.6430   20.1850   -4.4870 c3       619 PE       0.039600
   3714 C2         33.8430   21.2750   -3.6870 c3       619 PE       0.039600
   3715 H11        33.4430   22.5250   -5.3970 hc       620 PE      -0.019800
   3716 H12        32.1930   21.3050   -5.0370 hc       620 PE      -0.019800
   3717 H21        32.7730   23.7150   -3.2270 hc       620 PE      -0.019800
   3718 H22        31.6230   22.5050   -2.8570 hc       620 PE      -0.019800
   3719 C1         32.8830   22.0350   -4.5870 c3       620 PE       0.039600
   3720 C2         32.0430   23.0550   -3.7070 c3       620 PE       0.039600
   3721 H11        31.6130   24.1750   -5.4470 hc       621 PE      -0.019800
   3722 H12        30.2030   23.1550   -5.0470 hc       621 PE      -0.019800
   3723 H21        31.1630   25.4650   -3.2470 hc       621 PE      -0.019800
   3724 H22        29.7130   24.5350   -3.0570 hc       621 PE      -0.019800
   3725 C1         31.0130   23.7750   -4.6270 c3       621 PE       0.039600
   3726 C2         30.3830   24.9450   -3.8170 c3       621 PE       0.039600
   3727 H11        30.3830   26.2350   -5.5370 hc       622 PE      -0.019800
   3728 H12        28.7730   25.5750   -5.2170 hc       622 PE      -0.019800
   3729 H21        30.3830   27.7650   -3.7970 hc       622 PE      -0.019800
   3730 H22        28.9730   27.1150   -3.0170 hc       622 PE      -0.019800
   3731 C1         29.6730   25.9850   -4.7370 c3       622 PE       0.039600
   3732 C2         29.4030   27.3150   -4.0070 c3       622 PE       0.039600
   3733 H11        29.0930   28.6950   -5.7370 hc       623 PE      -0.019800
   3734 H12        27.8030   27.6250   -5.4070 hc       623 PE      -0.019800
   3735 H21        28.4630   29.8650   -3.3370 hc       623 PE      -0.019800
   3736 H22        27.1930   28.6950   -3.2670 hc       623 PE      -0.019800
   3737 C1         28.5030   28.2950   -4.8970 c3       623 PE       0.039600
   3738 C2         27.7430   29.3350   -3.9670 c3       623 PE       0.039600
   3739 H11        27.3630   30.6450   -5.6170 hc       624 PE      -0.019800
   3740 H12        25.9830   29.5450   -5.3370 hc       624 PE      -0.019800
   3741 H21        26.6030   31.8650   -3.5270 hc       624 PE      -0.019800
   3742 H22        25.2130   30.7750   -3.3670 hc       624 PE      -0.019800
   3743 C1         26.7530   30.1550   -4.8470 c3       624 PE       0.039600
   3744 C2         25.9430   31.1950   -4.0670 c3       624 PE       0.039600
   3745 H11        25.7830   32.6250   -5.6970 hc       625 PE      -0.019800
   3746 H12        24.3730   31.6150   -5.6170 hc       625 PE      -0.019800
   3747 H21        25.1930   33.8450   -3.5670 hc       625 PE      -0.019800
   3748 H22        23.7530   32.8450   -3.3370 hc       625 PE      -0.019800
   3749 C1         25.0830   32.1550   -4.9870 c3       625 PE       0.039600
   3750 C2         24.4230   33.2650   -4.0970 c3       625 PE       0.039600
   3751 H11        24.3030   34.6850   -5.5670 hc       626 PE      -0.019800
   3752 H12        22.8730   33.6450   -5.3870 hc       626 PE      -0.019800
   3753 H21        23.6230   35.8850   -3.3970 hc       626 PE      -0.019800
   3754 H22        22.4830   34.7550   -3.1470 hc       626 PE      -0.019800
   3755 C1         23.6030   34.2550   -4.8370 c3       626 PE       0.039600
   3756 C2         22.8830   35.3350   -3.9770 c3       626 PE       0.039600
   3757 H11        22.1730   36.7150   -5.4870 hc       627 PE      -0.019800
   3758 H12        20.9430   35.4950   -4.9170 hc       627 PE      -0.019800
   3759 H21        21.9530   38.0750   -3.6370 hc       627 PE      -0.019800
   3760 H22        21.0730   36.7350   -2.7870 hc       627 PE      -0.019800
   3761 C1         21.7630   36.1750   -4.6270 c3       627 PE       0.039600
   3762 C2         21.2230   37.2650   -3.7370 c3       627 PE       0.039600
   3763 H11        20.1430   38.5750   -5.0470 hc       628 PE      -0.019800
   3764 H12        19.2430   37.0950   -4.7870 hc       628 PE      -0.019800
   3765 H21        19.7030   39.4350   -2.7670 hc       628 PE      -0.019800
   3766 H22        18.9730   37.8250   -2.2870 hc       628 PE      -0.019800
   3767 C1         19.8930   37.8150   -4.2870 c3       628 PE       0.039600
   3768 C2         19.1730   38.5450   -3.0970 c3       628 PE       0.039600
   3769 H11        17.5030   39.8350   -2.6770 hc       629 PE      -0.019800
   3770 H12        17.7230   39.7050   -4.4270 hc       629 PE      -0.019800
   3771 H21        16.7130   37.8550   -2.2370 hc       629 PE      -0.019800
   3772 H22        16.8030   37.1250   -3.8270 hc       629 PE      -0.019800
   3773 C1         17.7730   39.1450   -3.4870 c3       629 PE       0.039600
   3774 C2         16.6230   38.0650   -3.3070 c3       629 PE       0.039600
   3775 H11        15.1230   39.5750   -3.5070 hc       630 PE      -0.019800
   3776 H12        15.2630   38.3550   -4.8270 hc       630 PE      -0.019800
   3777 H21        14.2930   36.6750   -2.8570 hc       630 PE      -0.019800
   3778 H22        13.1330   38.0050   -3.4570 hc       630 PE      -0.019800
   3779 C1         15.2530   38.5150   -3.7370 c3       630 PE       0.039600
   3780 C2         14.1230   37.7450   -3.0770 c3       630 PE       0.039600
   3781 H11         7.5830   21.9950    7.2230 hc       631 PE      -0.019800
   3782 H12         8.6330   21.3950    8.6730 hc       631 PE      -0.019800
   3783 H21         6.3830   21.5850    9.9630 hc       631 PE      -0.019800
   3784 H22         6.8030   20.1250    9.1130 hc       631 PE      -0.019800
   3785 C1          7.7030   21.8350    8.3030 c3       631 PE       0.039600
   3786 C2          6.5430   21.1850    8.9530 c3       631 PE       0.039600
   3787 H11         5.2930   22.3950    7.7030 hc       632 PE      -0.019800
   3788 H12         5.2530   20.7050    7.3530 hc       632 PE      -0.019800
   3789 H21         4.1030   22.0750    9.8330 hc       632 PE      -0.019800
   3790 H22         3.9930   20.3250    9.5830 hc       632 PE      -0.019800
   3791 C1          5.2530   21.4150    8.1930 c3       632 PE       0.039600
   3792 C2          3.9430   21.2950    9.0730 c3       632 PE       0.039600
   3793 H11         2.5630   22.3250    7.7330 hc       633 PE      -0.019800
   3794 H12         2.7530   20.6250    7.4730 hc       633 PE      -0.019800
   3795 H21         1.2930   22.1150    9.5130 hc       633 PE      -0.019800
   3796 H22         1.5230   20.3050    9.6730 hc       633 PE      -0.019800
   3797 C1          2.6330   21.3650    8.2630 c3       633 PE       0.039600
   3798 C2          1.3030   21.1450    9.0030 c3       633 PE       0.039600
   3799 H11        -0.0870   21.7050    7.5230 hc       634 PE      -0.019800
   3800 H12         0.2730   20.0350    7.4630 hc       634 PE      -0.019800
   3801 H21        -1.5470   21.3650    9.5930 hc       634 PE      -0.019800
   3802 H22        -0.9970   19.6850    9.7030 hc       634 PE      -0.019800
   3803 C1          0.0030   20.8250    8.1730 c3       634 PE       0.039600
   3804 C2         -1.2470   20.4950    9.0030 c3       634 PE       0.039600
   3805 H11        -2.7070   20.9450    7.4230 hc       635 PE      -0.019800
   3806 H12        -2.3170   19.1950    7.6130 hc       635 PE      -0.019800
   3807 H21        -3.8370   20.6350    9.6530 hc       635 PE      -0.019800
   3808 H22        -3.5970   18.9050    9.6330 hc       635 PE      -0.019800
   3809 C1         -2.4870   20.1450    8.1330 c3       635 PE       0.039600
   3810 C2         -3.7270   19.7850    8.9830 c3       635 PE       0.039600
   3811 H11        -5.2570   20.6150    7.6330 hc       636 PE      -0.019800
   3812 H12        -5.0670   18.8250    7.5230 hc       636 PE      -0.019800
   3813 H21        -6.5470   20.6750    9.5830 hc       636 PE      -0.019800
   3814 H22        -6.4070   18.9050    9.9130 hc       636 PE      -0.019800
   3815 C1         -5.0770   19.6850    8.1930 c3       636 PE       0.039600
   3816 C2         -6.3770   19.6850    9.1330 c3       636 PE       0.039600
   3817 H11        -7.8270   20.1850    7.6730 hc       637 PE      -0.019800
   3818 H12        -7.4570   18.4450    7.7930 hc       637 PE      -0.019800
   3819 H21        -8.9270   20.1350    9.8230 hc       637 PE      -0.019800
   3820 H22        -8.7470   18.3650   10.0630 hc       637 PE      -0.019800
   3821 C1         -7.6370   19.3650    8.3730 c3       637 PE       0.039600
   3822 C2         -8.8570   19.1650    9.3130 c3       637 PE       0.039600
   3823 H11       -10.2870   19.8850    7.9330 hc       638 PE      -0.019800
   3824 H12        -9.8470   18.1050    7.8430 hc       638 PE      -0.019800
   3825 H21       -11.5370   19.7450    9.7830 hc       638 PE      -0.019800
   3826 H22       -11.4370   18.0050   10.1230 hc       638 PE      -0.019800
   3827 C1        -10.1170   18.9550    8.4830 c3       638 PE       0.039600
   3828 C2        -11.4370   18.7550    9.3230 c3       638 PE       0.039600
   3829 H11       -12.9170   19.4750    7.8330 hc       639 PE      -0.019800
   3830 H12       -12.5470   17.7450    7.6830 hc       639 PE      -0.019800
   3831 H21       -14.1270   18.7850   10.1730 hc       639 PE      -0.019800
   3832 H22       -13.8870   17.2150    9.5930 hc       639 PE      -0.019800
   3833 C1        -12.7270   18.5550    8.4030 c3       639 PE       0.039600
   3834 C2        -14.0270   18.2350    9.2330 c3       639 PE       0.039600
   3835 H11       -15.3870   18.9150    7.6630 hc       640 PE      -0.019800
   3836 H12       -15.3270   17.2050    7.7830 hc       640 PE      -0.019800
   3837 H21       -16.7670   19.0450    9.7630 hc       640 PE      -0.019800
   3838 H22       -16.4070   17.3350   10.0530 hc       640 PE      -0.019800
   3839 C1        -15.3270   18.1050    8.4130 c3       640 PE       0.039600
   3840 C2        -16.6370   18.0750    9.2730 c3       640 PE       0.039600
   3841 H11       -18.0070   18.6450    7.7130 hc       641 PE      -0.019800
   3842 H12       -17.6870   16.8950    7.8530 hc       641 PE      -0.019800
   3843 H21       -19.3070   18.7150    9.7930 hc       641 PE      -0.019800
   3844 H22       -19.0370   17.0150   10.1130 hc       641 PE      -0.019800
   3845 C1        -17.8770   17.8150    8.4230 c3       641 PE       0.039600
   3846 C2        -19.1170   17.7550    9.3130 c3       641 PE       0.039600
   3847 H11       -20.4670   18.5150    7.8630 hc       642 PE      -0.019800
   3848 H12       -20.0870   16.8550    7.6030 hc       642 PE      -0.019800
   3849 H21       -21.8870   18.1150    9.8030 hc       642 PE      -0.019800
   3850 H22       -21.6770   16.3250    9.7530 hc       642 PE      -0.019800
   3851 C1        -20.3870   17.5550    8.3930 c3       642 PE       0.039600
   3852 C2        -21.6670   17.2550    9.1630 c3       642 PE       0.039600
   3853 H11       -23.0570   17.9250    7.4930 hc       643 PE      -0.019800
   3854 H12       -22.4970   16.2150    7.4030 hc       643 PE      -0.019800
   3855 H21       -24.6370   17.7050    9.0430 hc       643 PE      -0.019800
   3856 H22       -24.0670   16.1250    9.5930 hc       643 PE      -0.019800
   3857 C1        -22.8070   17.0250    8.0730 c3       643 PE       0.039600
   3858 C2        -24.2270   16.7450    8.7130 c3       643 PE       0.039600
   3859 H11       -25.2870   16.6150    6.8430 hc       644 PE      -0.019800
   3860 H12       -24.7270   15.1050    7.3830 hc       644 PE      -0.019800
   3861 H21       -26.9770   16.5950    8.8830 hc       644 PE      -0.019800
   3862 H22       -26.4670   14.9550    9.1930 hc       644 PE      -0.019800
   3863 C1        -25.2070   16.0150    7.7530 c3       644 PE       0.039600
   3864 C2        -26.5570   15.7050    8.4030 c3       644 PE       0.039600
   3865 H11       -28.2870   15.9050    7.0030 hc       645 PE      -0.019800
   3866 H12       -27.0570   14.7550    6.4530 hc       645 PE      -0.019800
   3867 H21       -29.3170   13.7750    7.2630 hc       645 PE      -0.019800
   3868 H22       -28.7870   14.2350    8.8130 hc       645 PE      -0.019800
   3869 C1        -27.5870   15.1350    7.3430 c3       645 PE       0.039600
   3870 C2        -28.3970   13.9650    7.8330 c3       645 PE       0.039600
   3871 H11       -27.2770   12.2950    6.8730 hc       646 PE      -0.019800
   3872 H12       -26.8170   12.5650    8.6030 hc       646 PE      -0.019800
   3873 H21       -29.6770   11.7250    7.8030 hc       646 PE      -0.019800
   3874 H22       -28.7970   11.3550    9.2530 hc       646 PE      -0.019800
   3875 C1        -27.6470   12.5350    7.8830 c3       646 PE       0.039600
   3876 C2        -28.6870   11.4150    8.1630 c3       646 PE       0.039600
   3877 H11       -29.0370    9.2850    7.5630 hc       647 PE      -0.019800
   3878 H12       -28.0270   10.2550    6.3930 hc       647 PE      -0.019800
   3879 H21       -27.1670    9.3050    9.2930 hc       647 PE      -0.019800
   3880 H22       -26.0870   10.1850    8.3330 hc       647 PE      -0.019800
   3881 C1        -28.2270   10.0150    7.4430 c3       647 PE       0.039600
   3882 C2        -26.8970    9.4450    8.2330 c3       647 PE       0.039600
   3883 H11       -27.3470    7.3650    7.7430 hc       648 PE      -0.019800
   3884 H12       -26.1870    7.9350    6.6930 hc       648 PE      -0.019800
   3885 H21       -25.7570    7.6450    9.6330 hc       648 PE      -0.019800
   3886 H22       -24.5070    8.1750    8.6030 hc       648 PE      -0.019800
   3887 C1        -26.4670    8.0050    7.7530 c3       648 PE       0.039600
   3888 C2        -25.3470    7.4650    8.6330 c3       648 PE       0.039600
   3889 H11       -25.5370    5.3750    8.8930 hc       649 PE      -0.019800
   3890 H12       -24.8670    5.8150    7.2930 hc       649 PE      -0.019800
   3891 H21       -23.4470    5.7350   10.1030 hc       649 PE      -0.019800
   3892 H22       -22.6470    6.3950    8.6830 hc       649 PE      -0.019800
   3893 C1        -24.8470    6.0450    8.3730 c3       649 PE       0.039600
   3894 C2        -23.4270    5.6950    9.0030 c3       649 PE       0.039600
   3895 H11       -23.8070    3.6450    8.8630 hc       650 PE      -0.019800
   3896 H12       -22.8970    4.2550    7.4830 hc       650 PE      -0.019800
   3897 H21       -21.4870    2.8450    9.2730 hc       650 PE      -0.019800
   3898 H22       -21.6870    4.2250   10.4130 hc       650 PE      -0.019800
   3899 C1        -22.9670    4.2850    8.5730 c3       650 PE       0.039600
   3900 C2        -21.5870    3.9350    9.3630 c3       650 PE       0.039600
   3901 H11       -20.4670    4.3150    7.5930 hc       651 PE      -0.019800
   3902 H12       -20.4070    5.6850    8.4930 hc       651 PE      -0.019800
   3903 H21       -19.0370    3.1650    9.7030 hc       651 PE      -0.019800
   3904 H22       -18.7170    4.8450   10.0930 hc       651 PE      -0.019800
   3905 C1        -20.3570    4.6050    8.6430 c3       651 PE       0.039600
   3906 C2        -18.9870    4.1650    9.2730 c3       651 PE       0.039600
   3907 H11       -17.5970    3.3050    7.8830 hc       652 PE      -0.019800
   3908 H12       -18.1470    4.9950    7.5030 hc       652 PE      -0.019800
   3909 H21       -16.4170    4.1550    9.7930 hc       652 PE      -0.019800
   3910 H22       -16.8670    5.8050    9.4630 hc       652 PE      -0.019800
   3911 C1        -17.8670    4.2850    8.2930 c3       652 PE       0.039600
   3912 C2        -16.6770    4.8450    8.9730 c3       652 PE       0.039600
   3913 H11       -15.3870    4.0450    7.4030 hc       653 PE      -0.019800
   3914 H12       -15.5870    5.7550    7.2430 hc       653 PE      -0.019800
   3915 H21       -14.2370    4.2750    9.5130 hc       653 PE      -0.019800
   3916 H22       -14.1170    6.0550    9.4430 hc       653 PE      -0.019800
   3917 C1        -15.4670    4.9650    7.9830 c3       653 PE       0.039600
   3918 C2        -14.1470    5.1350    8.8430 c3       653 PE       0.039600
   3919 H11       -12.6670    3.9750    7.6930 hc       654 PE      -0.019800
   3920 H12       -12.8770    5.7650    7.1930 hc       654 PE      -0.019800
   3921 H21       -11.4570    4.7850    9.6730 hc       654 PE      -0.019800
   3922 H22       -11.8570    6.5050    9.3030 hc       654 PE      -0.019800
   3923 C1        -12.8270    5.0250    7.9930 c3       654 PE       0.039600
   3924 C2        -11.5870    5.5350    8.8730 c3       654 PE       0.039600
   3925 H11       -10.1170    4.6450    7.5930 hc       655 PE      -0.019800
   3926 H12       -10.3870    6.2750    7.1730 hc       655 PE      -0.019800
   3927 H21        -8.8870    5.3150    9.6330 hc       655 PE      -0.019800
   3928 H22        -9.2170    7.0150    9.3930 hc       655 PE      -0.019800
   3929 C1        -10.2670    5.6350    8.0430 c3       655 PE       0.039600
   3930 C2         -9.0870    6.0550    8.8530 c3       655 PE       0.039600
   3931 H11        -7.5270    5.2050    7.4430 hc       656 PE      -0.019800
   3932 H12        -7.9470    6.9850    7.3130 hc       656 PE      -0.019800
   3933 H21        -6.3170    5.5750    9.5130 hc       656 PE      -0.019800
   3934 H22        -6.5370    7.3450    9.3230 hc       656 PE      -0.019800
   3935 C1         -7.7670    6.1350    7.9830 c3       656 PE       0.039600
   3936 C2         -6.4670    6.3850    8.7930 c3       656 PE       0.039600
   3937 H11        -4.9770    5.4750    7.5430 hc       657 PE      -0.019800
   3938 H12        -5.3070    7.1250    7.0730 hc       657 PE      -0.019800
   3939 H21        -3.8270    6.3950    9.6730 hc       657 PE      -0.019800
   3940 H22        -4.2070    7.9950    8.9830 hc       657 PE      -0.019800
   3941 C1         -5.1170    6.4850    7.9530 c3       657 PE       0.039600
   3942 C2         -3.8670    6.9750    8.7430 c3       657 PE       0.039600
   3943 H11        -2.7070    6.5150    6.9530 hc       658 PE      -0.019800
   3944 H12        -2.1870    8.0050    7.7830 hc       658 PE      -0.019800
   3945 H21        -1.7970    5.2150    8.7730 hc       658 PE      -0.019800
   3946 H22        -1.3570    6.6650    9.6130 hc       658 PE      -0.019800
   3947 C1         -2.5870    6.9950    7.9330 c3       658 PE       0.039600
   3948 C2         -1.4470    6.2450    8.6030 c3       658 PE       0.039600
   3949 H11        -0.0070    5.7050    6.8630 hc       659 PE      -0.019800
   3950 H12         0.1030    7.2850    7.4630 hc       659 PE      -0.019800
   3951 H21         0.8930    4.6250    8.8130 hc       659 PE      -0.019800
   3952 H22         1.1630    6.0350    9.7530 hc       659 PE      -0.019800
   3953 C1         -0.0270    6.2550    7.8130 c3       659 PE       0.039600
   3954 C2          1.0930    5.7050    8.7030 c3       659 PE       0.039600
   3955 H11         3.3030    5.2050    8.5830 hc       660 PE      -0.019800
   3956 H12         2.5930    5.6150    7.0430 hc       660 PE      -0.019800
   3957 H21         4.0830    7.3450    7.6930 hc       660 PE      -0.019800
   3958 H22         2.3730    8.0750    7.7130 hc       660 PE      -0.019800
   3959 C1          2.5830    5.8850    8.1130 c3       660 PE       0.039600
   3960 C2          3.0830    7.3650    8.1530 c3       660 PE       0.039600
   3961 H11       -24.1770  -11.1950    8.6630 hc       661 PE      -0.019800
   3962 H12       -22.7270  -11.0650    9.7230 hc       661 PE      -0.019800
   3963 H21       -24.1870   -8.8550    8.9830 hc       661 PE      -0.019800
   3964 H22       -23.2370   -9.0750    7.4830 hc       661 PE      -0.019800
   3965 C1        -23.2170  -10.6850    8.8130 c3       661 PE       0.039600
   3966 C2        -23.2470   -9.2350    8.5730 c3       661 PE       0.039600
   3967 H11       -22.0370   -7.4550    9.0430 hc       662 PE      -0.019800
   3968 H12       -21.7170   -8.8150   10.1530 hc       662 PE      -0.019800
   3969 H21       -20.5970   -8.1450    7.3530 hc       662 PE      -0.019800
   3970 H22       -20.5370   -9.8350    7.8330 hc       662 PE      -0.019800
   3971 C1        -21.8770   -8.5350    9.1130 c3       662 PE       0.039600
   3972 C2        -20.6470   -8.8150    8.2230 c3       662 PE       0.039600
   3973 H11       -19.4370   -7.7250    9.6330 hc       663 PE      -0.019800
   3974 H12       -19.3370   -9.4550    9.7430 hc       663 PE      -0.019800
   3975 H21       -18.1870   -7.9350    7.3830 hc       663 PE      -0.019800
   3976 H22       -18.0670   -9.5950    7.5730 hc       663 PE      -0.019800
   3977 C1        -19.3970   -8.6350    9.0230 c3       663 PE       0.039600
   3978 C2        -18.0670   -8.6850    8.1830 c3       663 PE       0.039600
   3979 H11       -16.8870   -7.4750    9.5430 hc       664 PE      -0.019800
   3980 H12       -16.7170   -9.1450    9.7930 hc       664 PE      -0.019800
   3981 H21       -15.4170   -7.4850    7.5230 hc       664 PE      -0.019800
   3982 H22       -15.3570   -9.3150    7.4030 hc       664 PE      -0.019800
   3983 C1        -16.7970   -8.4150    8.9830 c3       664 PE       0.039600
   3984 C2        -15.4770   -8.4450    8.0530 c3       664 PE       0.039600
   3985 H11       -14.3170   -7.7450    9.9230 hc       665 PE      -0.019800
   3986 H12       -14.2270   -9.4750    9.5130 hc       665 PE      -0.019800
   3987 H21       -13.1370   -7.0550    7.9030 hc       665 PE      -0.019800
   3988 H22       -12.7770   -8.7550    7.4930 hc       665 PE      -0.019800
   3989 C1        -14.2370   -8.4550    9.0930 c3       665 PE       0.039600
   3990 C2        -12.9470   -8.0550    8.3230 c3       665 PE       0.039600
   3991 H11       -11.4670   -7.1750    9.6930 hc       666 PE      -0.019800
   3992 H12       -11.6370   -8.9450    9.7730 hc       666 PE      -0.019800
   3993 H21       -10.5270   -7.4650    7.2930 hc       666 PE      -0.019800
   3994 H22       -10.2970   -9.1550    7.5930 hc       666 PE      -0.019800
   3995 C1        -11.5670   -8.0850    9.0930 c3       666 PE       0.039600
   3996 C2        -10.3470   -8.1850    8.1030 c3       666 PE       0.039600
   3997 H11        -9.0270   -6.9450    9.4630 hc       667 PE      -0.019800
   3998 H12        -8.6770   -8.6550    9.4530 hc       667 PE      -0.019800
   3999 H21        -8.0870   -6.7750    7.1030 hc       667 PE      -0.019800
   4000 H22        -7.4170   -8.4350    7.6030 hc       667 PE      -0.019800
   4001 C1         -8.9370   -7.8150    8.8030 c3       667 PE       0.039600
   4002 C2         -7.7970   -7.4550    7.9130 c3       667 PE       0.039600
   4003 H11        -7.0070   -5.8350    9.0630 hc       668 PE      -0.019800
   4004 H12        -6.4970   -7.5150    9.5130 hc       668 PE      -0.019800
   4005 H21        -5.5470   -5.8450    7.1730 hc       668 PE      -0.019800
   4006 H22        -4.7270   -7.4250    7.6630 hc       668 PE      -0.019800
   4007 C1         -6.5870   -6.7850    8.7030 c3       668 PE       0.039600
   4008 C2         -5.2770   -6.5350    7.9830 c3       668 PE       0.039600
   4009 H11        -4.8570   -4.9350    9.3630 hc       669 PE      -0.019800
   4010 H12        -4.0270   -6.4450    9.7630 hc       669 PE      -0.019800
   4011 H21        -3.2170   -4.9550    7.2530 hc       669 PE      -0.019800
   4012 H22        -2.5570   -6.3450    7.7730 hc       669 PE      -0.019800
   4013 C1         -4.3570   -5.8150    8.9330 c3       669 PE       0.039600
   4014 C2         -3.0570   -5.4650    8.2130 c3       669 PE       0.039600
   4015 H11        -2.4070   -3.8750    9.5530 hc       670 PE      -0.019800
   4016 H12        -1.5970   -5.3750    9.8530 hc       670 PE      -0.019800
   4017 H21        -1.1170   -3.5850    7.3030 hc       670 PE      -0.019800
   4018 H22        -0.3470   -5.0250    7.6230 hc       670 PE      -0.019800
   4019 C1         -2.0070   -4.7550    9.0430 c3       670 PE       0.039600
   4020 C2         -0.8570   -4.2250    8.1630 c3       670 PE       0.039600
   4021 H11        -0.4270   -2.5950    9.5230 hc       671 PE      -0.019800
   4022 H12         0.6030   -3.8950    9.7830 hc       671 PE      -0.019800
   4023 H21         1.8330   -2.0750    8.8530 hc       671 PE      -0.019800
   4024 H22         0.8330   -1.7950    7.5830 hc       671 PE      -0.019800
   4025 C1          0.1330   -3.3450    8.9530 c3       671 PE       0.039600
   4026 C2          1.2730   -2.6550    8.1030 c3       671 PE       0.039600
   4027 H11         2.3930   -4.4750    7.8330 hc       672 PE      -0.019800
   4028 H12         1.4030   -3.9950    6.4330 hc       672 PE      -0.019800
   4029 H21         4.2430   -3.2750    7.2230 hc       672 PE      -0.019800
   4030 H22         3.3530   -1.9850    6.4430 hc       672 PE      -0.019800
   4031 C1          2.0630   -3.6150    7.2230 c3       672 PE       0.039600
   4032 C2          3.3830   -3.0750    6.5730 c3       672 PE       0.039600
   4033 H11         3.7830   -4.8650    5.1830 hc       673 PE      -0.019800
   4034 H12         2.7530   -3.6350    4.3730 hc       673 PE      -0.019800
   4035 H21         4.8330   -2.1050    4.7030 hc       673 PE      -0.019800
   4036 H22         4.7030   -3.2450    3.3030 hc       673 PE      -0.019800
   4037 C1          3.5630   -3.7950    5.0930 c3       673 PE       0.039600
   4038 C2          4.7730   -3.1550    4.3930 c3       673 PE       0.039600
   4039 H11         6.2830   -3.8550    5.8930 hc       674 PE      -0.019800
   4040 H12         6.1530   -4.8450    4.3930 hc       674 PE      -0.019800
   4041 H21         7.4030   -2.0350    4.8130 hc       674 PE      -0.019800
   4042 H22         7.2430   -2.8250    3.2130 hc       674 PE      -0.019800
   4043 C1          6.1630   -3.8250    4.8030 c3       674 PE       0.039600
   4044 C2          7.4030   -2.9950    4.2830 c3       674 PE       0.039600
   4045 H11         8.9330   -3.8850    5.5230 hc       675 PE      -0.019800
   4046 H12         8.7530   -4.5650    3.8730 hc       675 PE      -0.019800
   4047 H21         9.7630   -1.6950    4.2130 hc       675 PE      -0.019800
   4048 H22         9.9530   -2.5550    2.8330 hc       675 PE      -0.019800
   4049 C1          8.8230   -3.6350    4.4530 c3       675 PE       0.039600
   4050 C2          9.9030   -2.7450    3.9130 c3       675 PE       0.039600
   4051 H11        11.4030   -3.5650    5.2430 hc       676 PE      -0.019800
   4052 H12        11.5930   -4.1050    3.6330 hc       676 PE      -0.019800
   4053 H21        12.3130   -1.4550    4.7830 hc       676 PE      -0.019800
   4054 H22        12.3030   -1.7350    3.0330 hc       676 PE      -0.019800
   4055 C1         11.3230   -3.2050    4.2130 c3       676 PE       0.039600
   4056 C2         12.4630   -2.2150    4.0030 c3       676 PE       0.039600
   4057 H11        14.1630   -3.2450    4.9230 hc       677 PE      -0.019800
   4058 H12        14.0030   -3.4550    3.1530 hc       677 PE      -0.019800
   4059 H21        14.7730   -0.7850    4.4930 hc       677 PE      -0.019800
   4060 H22        14.6230   -1.1450    2.7430 hc       677 PE      -0.019800
   4061 C1         13.9130   -2.7450    3.9730 c3       677 PE       0.039600
   4062 C2         14.8930   -1.5550    3.7230 c3       677 PE       0.039600
   4063 H11        16.5930   -2.4050    4.8730 hc       678 PE      -0.019800
   4064 H12        16.4530   -3.0050    3.1830 hc       678 PE      -0.019800
   4065 H21        17.3730   -0.1950    4.2330 hc       678 PE      -0.019800
   4066 H22        17.3530   -0.7150    2.5030 hc       678 PE      -0.019800
   4067 C1         16.3730   -2.1250    3.8330 c3       678 PE       0.039600
   4068 C2         17.5030   -1.0350    3.5430 c3       678 PE       0.039600
   4069 H11        19.0330   -2.0750    4.6730 hc       679 PE      -0.019800
   4070 H12        19.0830   -2.2950    2.9030 hc       679 PE      -0.019800
   4071 H21        19.7530    0.2450    4.4730 hc       679 PE      -0.019800
   4072 H22        20.0530    0.0450    2.7430 hc       679 PE      -0.019800
   4073 C1         18.9330   -1.5550    3.7130 c3       679 PE       0.039600
   4074 C2         20.0530   -0.4850    3.7030 c3       679 PE       0.039600
   4075 H11        21.5030   -1.7250    4.9030 hc       680 PE      -0.019800
   4076 H12        21.6830   -1.8850    3.1430 hc       680 PE      -0.019800
   4077 H21        22.3830    0.7550    4.6530 hc       680 PE      -0.019800
   4078 H22        22.6830    0.4350    2.9430 hc       680 PE      -0.019800
   4079 C1         21.5030   -1.1750    3.9530 c3       680 PE       0.039600
   4080 C2         22.6130   -0.0350    3.9330 c3       680 PE       0.039600
   4081 H11        24.1030   -0.5550    5.4730 hc       681 PE      -0.019800
   4082 H12        24.5330   -1.2950    3.8730 hc       681 PE      -0.019800
   4083 H21        24.9430    1.5650    4.8930 hc       681 PE      -0.019800
   4084 H22        24.9830    1.2450    3.2130 hc       681 PE      -0.019800
   4085 C1         24.1230   -0.4150    4.3830 c3       681 PE       0.039600
   4086 C2         25.1430    0.7450    4.1830 c3       681 PE       0.039600
   4087 H11        26.6030   -0.0450    5.4330 hc       682 PE      -0.019800
   4088 H12        26.7930   -0.5850    3.7130 hc       682 PE      -0.019800
   4089 H21        27.3230    2.1050    5.0130 hc       682 PE      -0.019800
   4090 H22        27.3730    1.8450    3.2630 hc       682 PE      -0.019800
   4091 C1         26.5630    0.2550    4.3830 c3       682 PE       0.039600
   4092 C2         27.5330    1.3650    4.2430 c3       682 PE       0.039600
   4093 H11        29.2130    0.5050    5.3530 hc       683 PE      -0.019800
   4094 H12        29.1830    0.3150    3.4430 hc       683 PE      -0.019800
   4095 H21        29.7230    2.9550    4.9230 hc       683 PE      -0.019800
   4096 H22        29.7530    2.6050    3.2030 hc       683 PE      -0.019800
   4097 C1         29.0230    0.9150    4.3530 c3       683 PE       0.039600
   4098 C2         29.9430    2.1750    4.1930 c3       683 PE       0.039600
   4099 H11        31.6330    1.3950    5.3830 hc       684 PE      -0.019800
   4100 H12        31.6130    0.8550    3.7330 hc       684 PE      -0.019800
   4101 H21        32.0130    3.8150    4.1230 hc       684 PE      -0.019800
   4102 H22        32.5630    2.8350    2.8530 hc       684 PE      -0.019800
   4103 C1         31.4130    1.7350    4.3630 c3       684 PE       0.039600
   4104 C2         32.4430    2.8250    3.9430 c3       684 PE       0.039600
   4105 H11        33.7530    2.3050    5.6130 hc       685 PE      -0.019800
   4106 H12        34.1030    1.5550    4.0230 hc       685 PE      -0.019800
   4107 H21        34.7430    4.2550    5.1930 hc       685 PE      -0.019800
   4108 H22        34.7830    4.1650    3.4330 hc       685 PE      -0.019800
   4109 C1         33.8530    2.4850    4.5430 c3       685 PE       0.039600
   4110 C2         34.9030    3.5750    4.3530 c3       685 PE       0.039600
   4111 H11        36.5430    2.5950    5.4330 hc       686 PE      -0.019800
   4112 H12        36.4830    2.1550    3.7330 hc       686 PE      -0.019800
   4113 H21        37.3130    4.9050    4.7330 hc       686 PE      -0.019800
   4114 H22        37.2230    4.4050    3.1030 hc       686 PE      -0.019800
   4115 C1         36.3230    2.9850    4.4330 c3       686 PE       0.039600
   4116 C2         37.4030    4.0050    4.1130 c3       686 PE       0.039600
   4117 H11       -41.0070    3.0950    5.3930 hc       687 PE      -0.019800
   4118 H12       -40.9870    2.4650    3.8530 hc       687 PE      -0.019800
   4119 H21       -40.1070    5.3750    4.5930 hc       687 PE      -0.019800
   4120 H22       -40.1870    4.8750    2.9730 hc       687 PE      -0.019800
   4121 C1        -41.1370    3.4250    4.3630 c3       687 PE       0.039600
   4122 C2        -40.0170    4.4750    3.9730 c3       687 PE       0.039600
   4123 H11       -38.5570    3.3350    5.0630 hc       688 PE      -0.019800
   4124 H12       -38.5370    3.1450    3.3330 hc       688 PE      -0.019800
   4125 H21       -37.6270    5.6650    4.9830 hc       688 PE      -0.019800
   4126 H22       -37.8470    5.7250    3.2430 hc       688 PE      -0.019800
   4127 C1        -38.6670    3.8950    4.1330 c3       688 PE       0.039600
   4128 C2        -37.5770    5.0550    4.0730 c3       688 PE       0.039600
   4129 H11       -36.1170    3.5050    4.5630 hc       689 PE      -0.019800
   4130 H12       -35.9770    4.0850    2.8930 hc       689 PE      -0.019800
   4131 H21       -35.3470    6.0950    5.1530 hc       689 PE      -0.019800
   4132 H22       -35.1070    6.2050    3.4030 hc       689 PE      -0.019800
   4133 C1        -36.1370    4.4050    3.9330 c3       689 PE       0.039600
   4134 C2        -35.0770    5.5250    4.2530 c3       689 PE       0.039600
   4135 H11       -33.4770    4.4650    5.2730 hc       690 PE      -0.019800
   4136 H12       -33.4670    4.2250    3.5930 hc       690 PE      -0.019800
   4137 H21       -32.5970    6.8750    4.9930 hc       690 PE      -0.019800
   4138 H22       -31.5970    5.5450    4.4530 hc       690 PE      -0.019800
   4139 C1        -33.6870    4.9950    4.3430 c3       690 PE       0.039600
   4140 C2        -32.5670    6.0350    4.2930 c3       690 PE       0.039600
   4141 H11       -23.5170  -16.1050    4.0930 hc       691 PE      -0.019800
   4142 H12       -22.3570  -14.9450    3.4630 hc       691 PE      -0.019800
   4143 H21       -23.2370  -15.1250    6.3230 hc       691 PE      -0.019800
   4144 H22       -23.0470  -13.6850    5.3830 hc       691 PE      -0.019800
   4145 C1        -22.5970  -15.5650    4.3330 c3       691 PE       0.039600
   4146 C2        -22.5870  -14.6650    5.5630 c3       691 PE       0.039600
   4147 H11       -20.7670  -15.5750    6.4630 hc       692 PE      -0.019800
   4148 H12       -20.6270  -14.2250    5.4230 hc       692 PE      -0.019800
   4149 H21       -22.0270  -14.0250    8.0430 hc       692 PE      -0.019800
   4150 H22       -21.3470  -12.6450    7.1730 hc       692 PE      -0.019800
   4151 C1        -21.2570  -14.6250    6.2330 c3       692 PE       0.039600
   4152 C2        -21.1870  -13.7050    7.4130 c3       692 PE       0.039600
   4153 H11       -20.1770  -13.4350    9.2630 hc       693 PE      -0.019800
   4154 H12       -19.6570  -14.9050    8.4030 hc       693 PE      -0.019800
   4155 H21       -19.0970  -12.0250    7.6430 hc       693 PE      -0.019800
   4156 H22       -18.5270  -13.3850    6.6830 hc       693 PE      -0.019800
   4157 C1        -19.9070  -13.8450    8.2830 c3       693 PE       0.039600
   4158 C2        -18.7270  -13.0550    7.7130 c3       693 PE       0.039600
   4159 H11       -17.5170  -12.6150    9.5730 hc       694 PE      -0.019800
   4160 H12       -17.2370  -14.1750    8.8630 hc       694 PE      -0.019800
   4161 H21       -15.9970  -11.5050    7.8830 hc       694 PE      -0.019800
   4162 H22       -16.0570  -12.9250    6.8530 hc       694 PE      -0.019800
   4163 C1        -17.3770  -13.1150    8.6030 c3       694 PE       0.039600
   4164 C2        -16.1270  -12.5950    7.8930 c3       694 PE       0.039600
   4165 H11       -14.7870  -12.8950    9.6730 hc       695 PE      -0.019800
   4166 H12       -15.0370  -14.2250    8.8330 hc       695 PE      -0.019800
   4167 H21       -12.8270  -13.6750    8.5530 hc       695 PE      -0.019800
   4168 H22       -13.1670  -12.0550    8.1630 hc       695 PE      -0.019800
   4169 C1        -14.8070  -13.1750    8.6130 c3       695 PE       0.039600
   4170 C2        -13.4970  -13.0750    7.9430 c3       695 PE       0.039600
   4171 H11       -13.8570  -14.5250    6.3030 hc       696 PE      -0.019800
   4172 H12       -13.8970  -12.9950    5.7830 hc       696 PE      -0.019800
   4173 H21       -11.2670  -14.3950    6.7630 hc       696 PE      -0.019800
   4174 H22       -11.2170  -12.7650    6.2330 hc       696 PE      -0.019800
   4175 C1        -13.2770  -13.6050    6.4530 c3       696 PE       0.039600
   4176 C2        -11.7470  -13.7150    6.0630 c3       696 PE       0.039600
   4177 H11       -11.8670  -13.5350    3.8430 hc       697 PE      -0.019800
   4178 H12       -10.6270  -14.6450    4.2730 hc       697 PE      -0.019800
   4179 H21       -13.5770  -15.0450    4.1930 hc       697 PE      -0.019800
   4180 H22       -12.4870  -16.2150    5.0430 hc       697 PE      -0.019800
   4181 C1        -11.6370  -14.3350    4.5530 c3       697 PE       0.039600
   4182 C2        -12.5770  -15.4950    4.2130 c3       697 PE       0.039600
   4183 H11       -11.6770  -15.6950    2.2430 hc       698 PE      -0.019800
   4184 H12       -11.5370  -17.1150    3.2630 hc       698 PE      -0.019800
   4185 H21       -14.1170  -16.0250    1.9330 hc       698 PE      -0.019800
   4186 H22       -14.0770  -17.2350    3.1930 hc       698 PE      -0.019800
   4187 C1        -12.2170  -16.3050    2.9830 c3       698 PE       0.039600
   4188 C2        -13.4870  -16.8150    2.3630 c3       698 PE       0.039600
   4189 H11       -12.6970  -17.7250    0.5930 hc       699 PE      -0.019800
   4190 H12       -13.1070  -18.9250    1.7230 hc       699 PE      -0.019800
   4191 H21       -14.4770  -18.8150   -0.3970 hc       699 PE      -0.019800
   4192 H22       -14.9470  -17.1350    0.0530 hc       699 PE      -0.019800
   4193 C1        -13.4870  -17.9750    1.3230 c3       699 PE       0.039600
   4194 C2        -14.7070  -18.1350    0.4330 c3       699 PE       0.039600
   4195 H11       -15.9470  -19.7350    1.3530 hc       700 PE      -0.019800
   4196 H12       -15.8470  -18.3750    2.3130 hc       700 PE      -0.019800
   4197 H21       -17.2570  -18.0250   -0.4570 hc       700 PE      -0.019800
   4198 H22       -17.5870  -17.1550    1.0230 hc       700 PE      -0.019800
   4199 C1        -15.9470  -18.6450    1.2630 c3       700 PE       0.039600
   4200 C2        -17.2670  -18.1250    0.6330 c3       700 PE       0.039600
   4201 H11       -19.0770  -19.0450    0.1930 hc       701 PE      -0.019800
   4202 H12       -17.9270  -20.2750    0.5730 hc       701 PE      -0.019800
   4203 H21       -18.1870  -19.1750    3.1730 hc       701 PE      -0.019800
   4204 H22       -19.3270  -20.3550    2.6130 hc       701 PE      -0.019800
   4205 C1        -18.3070  -19.3150    0.9230 c3       701 PE       0.039600
   4206 C2        -18.9670  -19.3350    2.4230 c3       701 PE       0.039600
   4207 H11       -20.0370  -17.8950    3.6230 hc       702 PE      -0.019800
   4208 H12       -19.8770  -17.2950    1.9630 hc       702 PE      -0.019800
   4209 H21       -21.5970  -19.1950    1.2330 hc       702 PE      -0.019800
   4210 H22       -22.1470  -17.8550    2.1930 hc       702 PE      -0.019800
   4211 C1        -20.0270  -18.2050    2.5630 c3       702 PE       0.039600
   4212 C2        -21.4970  -18.7450    2.2230 c3       702 PE       0.039600
   4213 H11       -21.4170  -20.4850    3.2630 hc       703 PE      -0.019800
   4214 H12       -21.9370  -19.1550    4.2930 hc       703 PE      -0.019800
   4215 H21       -23.6170  -20.0850    1.8230 hc       703 PE      -0.019800
   4216 H22       -24.1270  -19.1750    3.1930 hc       703 PE      -0.019800
   4217 C1        -22.0570  -19.5950    3.3030 c3       703 PE       0.039600
   4218 C2        -23.5070  -20.0250    2.9130 c3       703 PE       0.039600
   4219 H11       -23.1670  -22.1250    3.4530 hc       704 PE      -0.019800
   4220 H12       -23.7270  -21.2150    4.7730 hc       704 PE      -0.019800
   4221 H21       -25.4270  -21.6850    2.3430 hc       704 PE      -0.019800
   4222 H22       -26.0170  -21.0050    3.8430 hc       704 PE      -0.019800
   4223 C1        -23.8770  -21.3250    3.6930 c3       704 PE       0.039600
   4224 C2        -25.3170  -21.7450    3.4330 c3       704 PE       0.039600
   4225 H11       -24.7270  -23.9150    3.8430 hc       705 PE      -0.019800
   4226 H12       -25.4170  -23.2950    5.1230 hc       705 PE      -0.019800
   4227 H21       -26.8270  -24.3150    2.6430 hc       705 PE      -0.019800
   4228 H22       -27.7170  -23.0850    3.4430 hc       705 PE      -0.019800
   4229 C1        -25.5570  -23.2150    4.0330 c3       705 PE       0.039600
   4230 C2        -26.9270  -23.8250    3.6230 c3       705 PE       0.039600
   4231 H11       -26.7670  -25.6550    4.7730 hc       706 PE      -0.019800
   4232 H12       -27.6070  -24.4250    5.6930 hc       706 PE      -0.019800
   4233 H21       -29.0070  -26.3050    4.8130 hc       706 PE      -0.019800
   4234 H22       -28.6370  -25.8750    3.1330 hc       706 PE      -0.019800
   4235 C1        -27.4770  -24.8250    4.6730 c3       706 PE       0.039600
   4236 C2        -28.8170  -25.4650    4.1330 c3       706 PE       0.039600
   4237 H11       -29.9370  -23.7550    4.8930 hc       707 PE      -0.019800
   4238 H12       -29.8070  -23.7550    3.1130 hc       707 PE      -0.019800
   4239 H21       -31.5370  -25.6250    4.6830 hc       707 PE      -0.019800
   4240 H22       -31.2570  -25.6850    2.9130 hc       707 PE      -0.019800
   4241 C1        -29.9070  -24.3950    4.0030 c3       707 PE       0.039600
   4242 C2        -31.3170  -25.0350    3.7930 c3       707 PE       0.039600
   4243 H11       -32.5070  -23.2450    4.3630 hc       708 PE      -0.019800
   4244 H12       -32.1470  -23.2450    2.6930 hc       708 PE      -0.019800
   4245 H21       -34.0870  -25.1550    4.0530 hc       708 PE      -0.019800
   4246 H22       -33.4470  -25.4450    2.4330 hc       708 PE      -0.019800
   4247 C1        -32.3970  -23.9350    3.5130 c3       708 PE       0.039600
   4248 C2        -33.7070  -24.6550    3.1530 c3       708 PE       0.039600
   4249 H11       -34.7370  -22.7850    3.0830 hc       709 PE      -0.019800
   4250 H12       -34.4770  -23.5750    1.5330 hc       709 PE      -0.019800
   4251 H21       -36.1370  -25.4550    2.7430 hc       709 PE      -0.019800
   4252 H22       -36.7470  -24.1050    1.7330 hc       709 PE      -0.019800
   4253 C1        -34.7570  -23.7650    2.5730 c3       709 PE       0.039600
   4254 C2        -36.2370  -24.3650    2.6730 c3       709 PE       0.039600
   4255 H11       -36.4670  -23.9650    4.8430 hc       710 PE      -0.019800
   4256 H12       -37.2570  -22.7750    3.7430 hc       710 PE      -0.019800
   4257 H21       -38.2270  -25.6050    4.0830 hc       710 PE      -0.019800
   4258 H22       -38.8170  -24.4550    2.8830 hc       710 PE      -0.019800
   4259 C1        -36.9970  -23.8350    3.8930 c3       710 PE       0.039600
   4260 C2        -38.3970  -24.5350    3.8930 c3       710 PE       0.039600
   4261 H11       -38.6470  -23.9650    5.9930 hc       711 PE      -0.019800
   4262 H12       -39.4270  -22.8650    4.8030 hc       711 PE      -0.019800
   4263 H21       -41.2270  -24.4650    4.5030 hc       711 PE      -0.019800
   4264 H22       -41.0770  -24.0050    6.2030 hc       711 PE      -0.019800
   4265 C1        -39.2570  -23.9150    5.0830 c3       711 PE       0.039600
   4266 C2        -40.6070  -24.5850    5.4030 c3       711 PE       0.039600
   4267 H11        39.5130  -26.7150    4.9230 hc       712 PE      -0.019800
   4268 H12        40.4430  -26.2350    6.3930 hc       712 PE      -0.019800
   4269 H21        37.3730  -26.4050    5.8130 hc       712 PE      -0.019800
   4270 H22        37.9430  -25.6750    7.3230 hc       712 PE      -0.019800
   4271 C1         39.5430  -26.0450    5.7930 c3       712 PE       0.039600
   4272 C2         38.1930  -26.4050    6.5430 c3       712 PE       0.039600
   4273 H11        38.1030  -28.6350    6.3230 hc       713 PE      -0.019800
   4274 H12        39.2430  -28.0550    7.4330 hc       713 PE      -0.019800
   4275 H21        37.2930  -27.4850    9.0130 hc       713 PE      -0.019800
   4276 H22        37.2630  -29.1550    8.5230 hc       713 PE      -0.019800
   4277 C1         38.2230  -27.8550    7.0830 c3       713 PE       0.039600
   4278 C2         37.1430  -28.1350    8.1330 c3       713 PE       0.039600
   4279 H11        35.4630  -27.1150    7.0230 hc       714 PE      -0.019800
   4280 H12        35.5430  -28.8050    6.7730 hc       714 PE      -0.019800
   4281 H21        34.6430  -27.5550    9.3130 hc       714 PE      -0.019800
   4282 H22        34.8530  -29.2350    8.9830 hc       714 PE      -0.019800
   4283 C1         35.6730  -28.0550    7.5630 c3       714 PE       0.039600
   4284 C2         34.5230  -28.2950    8.5130 c3       714 PE       0.039600
   4285 H11        33.0130  -27.4850    7.0230 hc       715 PE      -0.019800
   4286 H12        33.3030  -29.1250    7.0930 hc       715 PE      -0.019800
   4287 H21        32.0130  -27.6150    9.4230 hc       715 PE      -0.019800
   4288 H22        32.0230  -29.4350    9.3130 hc       715 PE      -0.019800
   4289 C1         33.1330  -28.2850    7.7630 c3       715 PE       0.039600
   4290 C2         31.9230  -28.4850    8.7630 c3       715 PE       0.039600
   4291 H11        30.4630  -27.5150    7.5730 hc       716 PE      -0.019800
   4292 H12        30.7330  -29.3450    7.2430 hc       716 PE      -0.019800
   4293 H21        29.3430  -28.2950    9.8330 hc       716 PE      -0.019800
   4294 H22        29.4830  -29.9950    9.2630 hc       716 PE      -0.019800
   4295 C1         30.6130  -28.5350    7.9630 c3       716 PE       0.039600
   4296 C2         29.3930  -28.9450    8.9530 c3       716 PE       0.039600
   4297 H11        27.9830  -27.7150    7.8330 hc       717 PE      -0.019800
   4298 H12        28.0130  -29.3650    7.2930 hc       717 PE      -0.019800
   4299 H21        26.5630  -28.2850    9.7830 hc       717 PE      -0.019800
   4300 H22        27.0330  -29.9150    9.7130 hc       717 PE      -0.019800
   4301 C1         28.0330  -28.7450    8.2030 c3       717 PE       0.039600
   4302 C2         26.7730  -29.0750    9.0530 c3       717 PE       0.039600
   4303 H11        25.2930  -28.3850    7.7330 hc       718 PE      -0.019800
   4304 H12        25.6330  -30.0450    7.4230 hc       718 PE      -0.019800
   4305 H21        24.3530  -29.1950   10.1030 hc       718 PE      -0.019800
   4306 H22        24.2730  -30.7950    9.3730 hc       718 PE      -0.019800
   4307 C1         25.4830  -29.3350    8.2430 c3       718 PE       0.039600
   4308 C2         24.2830  -29.7250    9.1530 c3       718 PE       0.039600
   4309 H11        22.8830  -28.2350    8.4430 hc       719 PE      -0.019800
   4310 H12        22.7530  -29.7150    7.5030 hc       719 PE      -0.019800
   4311 H21        21.9030  -29.3150   10.3930 hc       719 PE      -0.019800
   4312 H22        21.9630  -30.9350    9.6230 hc       719 PE      -0.019800
   4313 C1         22.9930  -29.3250    8.5030 c3       719 PE       0.039600
   4314 C2         21.8430  -29.8650    9.4430 c3       719 PE       0.039600
   4315 H11        20.0030  -28.6250    9.0130 hc       720 PE      -0.019800
   4316 H12        20.4730  -29.6950    7.6930 hc       720 PE      -0.019800
   4317 H21        18.3430  -30.3850    9.1530 hc       720 PE      -0.019800
   4318 H22        19.6430  -31.2550   10.0530 hc       720 PE      -0.019800
   4319 C1         20.4230  -29.6050    8.7830 c3       720 PE       0.039600
   4320 C2         19.4130  -30.6250    9.1830 c3       720 PE       0.039600
   4321 H11       -37.9770   40.6050   -5.3170 hc       721 PE      -0.019800
   4322 H12       -39.2270   40.8150   -4.0770 hc       721 PE      -0.019800
   4323 H21       -38.8370   38.4950   -3.3070 hc       721 PE      -0.019800
   4324 H22       -37.2970   39.4750   -3.3370 hc       721 PE      -0.019800
   4325 C1        -38.7670   40.0850   -4.7570 c3       721 PE       0.039600
   4326 C2        -38.0870   39.0050   -3.9270 c3       721 PE       0.039600
   4327 H11       -38.0670   37.3950   -5.4670 hc       722 PE      -0.019800
   4328 H12       -36.6870   38.4050   -5.4870 hc       722 PE      -0.019800
   4329 H21       -37.2070   36.2150   -3.3770 hc       722 PE      -0.019800
   4330 H22       -35.9870   37.4050   -3.1570 hc       722 PE      -0.019800
   4331 C1        -37.3970   37.9350   -4.7870 c3       722 PE       0.039600
   4332 C2        -36.5870   36.9250   -3.9370 c3       722 PE       0.039600
   4333 H11       -36.1670   35.6050   -5.5970 hc       723 PE      -0.019800
   4334 H12       -35.1270   36.8250   -5.5570 hc       723 PE      -0.019800
   4335 H21       -35.3970   34.6650   -3.3970 hc       723 PE      -0.019800
   4336 H22       -34.1170   35.8850   -3.3170 hc       723 PE      -0.019800
   4337 C1        -35.6470   36.1850   -4.8370 c3       723 PE       0.039600
   4338 C2        -34.7170   35.2750   -3.9970 c3       723 PE       0.039600
   4339 H11       -34.5070   33.6650   -5.4970 hc       724 PE      -0.019800
   4340 H12       -33.2970   34.8850   -5.5470 hc       724 PE      -0.019800
   4341 H21       -33.8870   32.7950   -3.4770 hc       724 PE      -0.019800
   4342 H22       -32.5670   33.8750   -3.2570 hc       724 PE      -0.019800
   4343 C1        -33.9070   34.3050   -4.8470 c3       724 PE       0.039600
   4344 C2        -33.1170   33.3450   -4.0370 c3       724 PE       0.039600
   4345 H11       -32.7470   31.7350   -5.4770 hc       725 PE      -0.019800
   4346 H12       -31.4870   32.9750   -5.3270 hc       725 PE      -0.019800
   4347 H21       -32.0970   30.8450   -3.1570 hc       725 PE      -0.019800
   4348 H22       -30.8570   32.0650   -3.1070 hc       725 PE      -0.019800
   4349 C1        -32.2170   32.3750   -4.7670 c3       725 PE       0.039600
   4350 C2        -31.4170   31.4250   -3.7970 c3       725 PE       0.039600
   4351 H11       -31.0570   29.9650   -5.3170 hc       726 PE      -0.019800
   4352 H12       -29.8670   31.2350   -5.0470 hc       726 PE      -0.019800
   4353 H21       -30.3470   28.6950   -3.2570 hc       726 PE      -0.019800
   4354 H22       -29.1070   29.8950   -2.9670 hc       726 PE      -0.019800
   4355 C1        -30.4970   30.4950   -4.5370 c3       726 PE       0.039600
   4356 C2        -29.6670   29.3950   -3.7670 c3       726 PE       0.039600
   4357 H11       -29.2470   27.8450   -5.1770 hc       727 PE      -0.019800
   4358 H12       -28.0670   29.1350   -5.2770 hc       727 PE      -0.019800
   4359 H21       -28.1970   27.1850   -3.0870 hc       727 PE      -0.019800
   4360 H22       -26.9470   28.4650   -3.1470 hc       727 PE      -0.019800
   4361 C1        -28.6770   28.5550   -4.5670 c3       727 PE       0.039600
   4362 C2        -27.5870   27.8150   -3.7470 c3       727 PE       0.039600
   4363 H11       -27.1370   26.3050   -5.2570 hc       728 PE      -0.019800
   4364 H12       -25.8870   27.6250   -5.0670 hc       728 PE      -0.019800
   4365 H21       -26.2470   25.3550   -2.9370 hc       728 PE      -0.019800
   4366 H22       -25.0370   26.6750   -3.0470 hc       728 PE      -0.019800
   4367 C1        -26.5470   26.9150   -4.5570 c3       728 PE       0.039600
   4368 C2        -25.6870   26.0050   -3.6170 c3       728 PE       0.039600
   4369 H11       -25.4770   24.6050   -5.1670 hc       729 PE      -0.019800
   4370 H12       -24.3070   25.9350   -5.1870 hc       729 PE      -0.019800
   4371 H21       -22.7270   24.7350   -3.7670 hc       729 PE      -0.019800
   4372 H22       -23.6170   23.4950   -4.5770 hc       729 PE      -0.019800
   4373 C1        -24.7770   25.1750   -4.5470 c3       729 PE       0.039600
   4374 C2        -23.7170   24.2650   -3.8070 c3       729 PE       0.039600
   4375 H11       -24.2270   24.4950   -1.7470 hc       730 PE      -0.019800
   4376 H12       -25.0770   23.1450   -2.4170 hc       730 PE      -0.019800
   4377 H21       -21.9770   23.2950   -2.2370 hc       730 PE      -0.019800
   4378 H22       -22.7470   21.8750   -2.6370 hc       730 PE      -0.019800
   4379 C1        -24.0870   23.6250   -2.3970 c3       730 PE       0.039600
   4380 C2        -22.9070   22.7550   -2.0070 c3       730 PE       0.039600
   4381 H11       -22.1470   22.4850    0.0230 hc       731 PE      -0.019800
   4382 H12       -23.8570   22.8250   -0.0370 hc       731 PE      -0.019800
   4383 H21       -22.5370   20.1950   -1.1070 hc       731 PE      -0.019800
   4384 H22       -24.2070   20.4850   -0.8570 hc       731 PE      -0.019800
   4385 C1        -23.0670   22.2550   -0.5470 c3       731 PE       0.039600
   4386 C2        -23.2270   20.7250   -0.4370 c3       731 PE       0.039600
   4387 H11       -23.9170   20.6750    1.6130 hc       732 PE      -0.019800
   4388 H12       -23.2370   19.1550    0.8730 hc       732 PE      -0.019800
   4389 H21       -21.6970   21.5650    2.0930 hc       732 PE      -0.019800
   4390 H22       -20.9270   20.2850    1.1530 hc       732 PE      -0.019800
   4391 C1        -23.0970   20.2250    1.0430 c3       732 PE       0.039600
   4392 C2        -21.7770   20.5050    1.8030 c3       732 PE       0.039600
   4393 H11       -22.4870   19.8250    3.7830 hc       733 PE      -0.019800
   4394 H12       -21.4070   18.6650    3.0730 hc       733 PE      -0.019800
   4395 H21       -20.3770   19.7250    5.0230 hc       733 PE      -0.019800
   4396 H22       -20.7670   21.3150    4.4730 hc       733 PE      -0.019800
   4397 C1        -21.5770   19.7450    3.1630 c3       733 PE       0.039600
   4398 C2        -20.4570   20.3250    4.1130 c3       733 PE       0.039600
   4399 H11       -18.9170   19.3150    3.0830 hc       734 PE      -0.019800
   4400 H12       -19.1770   20.9050    2.5230 hc       734 PE      -0.019800
   4401 H21       -17.8370   20.0850    5.1930 hc       734 PE      -0.019800
   4402 H22       -18.2770   21.6650    5.0030 hc       734 PE      -0.019800
   4403 C1        -19.1170   20.3350    3.4530 c3       734 PE       0.039600
   4404 C2        -17.9570   20.8150    4.3930 c3       734 PE       0.039600
   4405 H11       -16.5270   20.1050    2.9730 hc       735 PE      -0.019800
   4406 H12       -16.8170   21.8850    2.8830 hc       735 PE      -0.019800
   4407 H21       -15.2470   20.6150    5.0630 hc       735 PE      -0.019800
   4408 H22       -15.6970   22.3850    5.0330 hc       735 PE      -0.019800
   4409 C1        -16.6570   21.0250    3.5430 c3       735 PE       0.039600
   4410 C2        -15.4470   21.4950    4.4430 c3       735 PE       0.039600
   4411 H11       -14.0770   20.9650    2.9730 hc       736 PE      -0.019800
   4412 H12       -14.3370   22.5950    2.9930 hc       736 PE      -0.019800
   4413 H21       -12.8970   20.9650    5.2830 hc       736 PE      -0.019800
   4414 H22       -13.0170   22.7750    5.1430 hc       736 PE      -0.019800
   4415 C1        -14.2170   21.7650    3.7030 c3       736 PE       0.039600
   4416 C2        -12.9570   21.8150    4.6030 c3       736 PE       0.039600
   4417 H11       -11.6870   20.8750    3.1830 hc       737 PE      -0.019800
   4418 H12       -11.6370   22.6250    3.0630 hc       737 PE      -0.019800
   4419 H21       -10.3470   20.9050    5.3430 hc       737 PE      -0.019800
   4420 H22       -10.5070   22.6650    5.3830 hc       737 PE      -0.019800
   4421 C1        -11.6870   21.7950    3.7730 c3       737 PE       0.039600
   4422 C2        -10.4470   21.7950    4.7130 c3       737 PE       0.039600
   4423 H11        -9.1570   20.9150    3.2630 hc       738 PE      -0.019800
   4424 H12        -9.2370   22.6350    3.0730 hc       738 PE      -0.019800
   4425 H21        -7.7170   21.4050    5.5130 hc       738 PE      -0.019800
   4426 H22        -7.9370   23.0750    5.1430 hc       738 PE      -0.019800
   4427 C1         -9.1670   21.8450    3.8330 c3       738 PE       0.039600
   4428 C2         -7.9170   22.0850    4.6730 c3       738 PE       0.039600
   4429 H11        -6.5170   21.2150    3.3930 hc       739 PE      -0.019800
   4430 H12        -6.7370   22.9950    3.0030 hc       739 PE      -0.019800
   4431 H21        -5.1470   21.8150    5.2830 hc       739 PE      -0.019800
   4432 H22        -5.7470   23.4450    5.2430 hc       739 PE      -0.019800
   4433 C1         -6.6470   22.2250    3.7830 c3       739 PE       0.039600
   4434 C2         -5.4070   22.6250    4.5930 c3       739 PE       0.039600
   4435 H11        -4.1970   22.5150    2.7130 hc       740 PE      -0.019800
   4436 H12        -4.6070   24.0550    3.2230 hc       740 PE      -0.019800
   4437 H21        -2.8470   22.2950    5.0730 hc       740 PE      -0.019800
   4438 H22        -2.9070   24.0850    4.9530 hc       740 PE      -0.019800
   4439 C1         -4.3270   23.0850    3.6430 c3       740 PE       0.039600
   4440 C2         -2.9970   23.1450    4.3930 c3       740 PE       0.039600
   4441 H11        -1.7670   22.3350    2.7530 hc       741 PE      -0.019800
   4442 H12        -1.8370   24.0750    2.8230 hc       741 PE      -0.019800
   4443 H21        -0.4370   22.3250    4.8830 hc       741 PE      -0.019800
   4444 H22        -0.5970   24.0450    5.0730 hc       741 PE      -0.019800
   4445 C1         -1.7870   23.1850    3.4530 c3       741 PE       0.039600
   4446 C2         -0.5670   23.2550    4.3130 c3       741 PE       0.039600
   4447 H11         1.0030   22.6650    2.7830 hc       742 PE      -0.019800
   4448 H12         0.6130   24.3150    2.8230 hc       742 PE      -0.019800
   4449 H21         2.0530   22.6750    5.0030 hc       742 PE      -0.019800
   4450 H22         1.8930   24.4550    5.0830 hc       742 PE      -0.019800
   4451 C1          0.7830   23.4650    3.5030 c3       742 PE       0.039600
   4452 C2          1.9530   23.5950    4.4030 c3       742 PE       0.039600
   4453 H11         3.4830   22.7350    3.3330 hc       743 PE      -0.019800
   4454 H12         2.9930   24.3250    2.6830 hc       743 PE      -0.019800
   4455 H21         4.3830   24.2050    5.4630 hc       743 PE      -0.019800
   4456 H22         4.1330   25.5150    4.5730 hc       743 PE      -0.019800
   4457 C1          3.2830   23.7850    3.5930 c3       743 PE       0.039600
   4458 C2          4.4130   24.4650    4.3930 c3       743 PE       0.039600
   4459 H11         6.0330   23.1650    3.6530 hc       744 PE      -0.019800
   4460 H12         5.7630   24.6850    2.7030 hc       744 PE      -0.019800
   4461 H21         7.1530   24.8150    5.5230 hc       744 PE      -0.019800
   4462 H22         6.4430   26.1150    4.6030 hc       744 PE      -0.019800
   4463 C1          5.8430   24.2450    3.7030 c3       744 PE       0.039600
   4464 C2          6.9030   25.1350    4.5030 c3       744 PE       0.039600
   4465 H11         8.7330   24.4050    3.8230 hc       745 PE      -0.019800
   4466 H12         7.9930   25.6650    2.7930 hc       745 PE      -0.019800
   4467 H21         9.1930   26.3950    5.5330 hc       745 PE      -0.019800
   4468 H22         8.6030   27.4550    4.2230 hc       745 PE      -0.019800
   4469 C1          8.2330   25.3850    3.8230 c3       745 PE       0.039600
   4470 C2          9.1130   26.5050    4.4430 c3       745 PE       0.039600
   4471 H11        10.9830   25.6850    3.7430 hc       746 PE      -0.019800
   4472 H12        10.2230   26.8550    2.6030 hc       746 PE      -0.019800
   4473 H21        12.2930   27.6450    3.7630 hc       746 PE      -0.019800
   4474 H22        11.5630   27.4350    5.3030 hc       746 PE      -0.019800
   4475 C1         10.4430   26.6350    3.6530 c3       746 PE       0.039600
   4476 C2         11.3330   27.7350    4.2730 c3       746 PE       0.039600
   4477 H11        10.2030   29.2150    3.2530 hc       747 PE      -0.019800
   4478 H12        10.1130   29.2950    5.0730 hc       747 PE      -0.019800
   4479 H21        12.5730   30.0450    3.3930 hc       747 PE      -0.019800
   4480 H22        12.4630   30.3150    5.0530 hc       747 PE      -0.019800
   4481 C1         10.7630   29.1650    4.1930 c3       747 PE       0.039600
   4482 C2         11.8230   30.2650    4.1630 c3       747 PE       0.039600
   4483 H11        10.5530   31.9250    3.2130 hc       748 PE      -0.019800
   4484 H12        10.5830   31.9650    4.9030 hc       748 PE      -0.019800
   4485 H21        12.8830   32.6750    3.0130 hc       748 PE      -0.019800
   4486 H22        13.0830   32.6650    4.7530 hc       748 PE      -0.019800
   4487 C1         11.2330   31.7250    4.0530 c3       748 PE       0.039600
   4488 C2         12.3330   32.8150    3.9630 c3       748 PE       0.039600
   4489 H11        11.0130   34.3750    3.1530 hc       749 PE      -0.019800
   4490 H12        10.9530   34.2650    4.8630 hc       749 PE      -0.019800
   4491 H21        13.0930   35.2750    3.0730 hc       749 PE      -0.019800
   4492 H22        13.5530   35.0050    4.7730 hc       749 PE      -0.019800
   4493 C1         11.6630   34.2450    4.0230 c3       749 PE       0.039600
   4494 C2         12.7330   35.3250    4.1130 c3       749 PE       0.039600
   4495 H11        11.5830   37.1250    3.6630 hc       750 PE      -0.019800
   4496 H12        11.7530   36.7750    5.4030 hc       750 PE      -0.019800
   4497 H21        13.0630   38.6750    5.2030 hc       750 PE      -0.019800
   4498 H22        13.7430   38.1850    3.6830 hc       750 PE      -0.019800
   4499 C1         12.2630   36.7650    4.4330 c3       750 PE       0.039600
   4500 C2         13.3730   37.7950    4.6430 c3       750 PE       0.039600
   4501 H11        -4.0270    2.4150   -8.2070 hc       751 PE      -0.019800
   4502 H12        -5.5770    3.0750   -8.7670 hc       751 PE      -0.019800
   4503 H21        -4.5470    0.6450  -10.2870 hc       751 PE      -0.019800
   4504 H22        -6.2670    1.2050  -10.1070 hc       751 PE      -0.019800
   4505 C1         -4.7370    2.4150   -9.0370 c3       751 PE       0.039600
   4506 C2         -5.3070    1.0350   -9.5970 c3       751 PE       0.039600
   4507 H11        -4.5070   -0.4150   -8.0570 hc       752 PE      -0.019800
   4508 H12        -5.9170    0.4950   -7.5870 hc       752 PE      -0.019800
   4509 H21        -5.6270   -1.6850   -9.8670 hc       752 PE      -0.019800
   4510 H22        -7.1370   -0.9650   -9.5870 hc       752 PE      -0.019800
   4511 C1         -5.4470   -0.0050   -8.4470 c3       752 PE       0.039600
   4512 C2         -6.2270   -1.2450   -9.0570 c3       752 PE       0.039600
   4513 H11        -5.7070   -2.6050   -7.5470 hc       753 PE      -0.019800
   4514 H12        -7.2270   -1.8950   -7.3070 hc       753 PE      -0.019800
   4515 H21        -6.8170   -3.6450   -9.7570 hc       753 PE      -0.019800
   4516 H22        -8.3470   -3.3650   -8.8970 hc       753 PE      -0.019800
   4517 C1         -6.6170   -2.3250   -8.1070 c3       753 PE       0.039600
   4518 C2         -7.2670   -3.5150   -8.7670 c3       753 PE       0.039600
   4519 H11        -6.0370   -5.0350   -7.8170 hc       754 PE      -0.019800
   4520 H12        -7.4770   -4.6650   -6.8370 hc       754 PE      -0.019800
   4521 H21        -7.8170   -5.9450   -9.6470 hc       754 PE      -0.019800
   4522 H22        -8.9170   -6.0450   -8.3270 hc       754 PE      -0.019800
   4523 C1         -7.1070   -4.8050   -7.8670 c3       754 PE       0.039600
   4524 C2         -7.8470   -6.0050   -8.5470 c3       754 PE       0.039600
   4525 H11        -6.2470   -7.4050   -8.3270 hc       755 PE      -0.019800
   4526 H12        -7.2770   -7.3550   -6.8970 hc       755 PE      -0.019800
   4527 H21        -7.7670   -8.6050   -9.7070 hc       755 PE      -0.019800
   4528 H22        -9.0770   -8.2050   -8.5170 hc       755 PE      -0.019800
   4529 C1         -7.2870   -7.2750   -7.9970 c3       755 PE       0.039600
   4530 C2         -8.0270   -8.4950   -8.6470 c3       755 PE       0.039600
   4531 H11        -7.5770  -10.0250   -7.0370 hc       756 PE      -0.019800
   4532 H12        -8.5470  -10.4850   -8.4070 hc       756 PE      -0.019800
   4533 H21        -6.1970  -10.0050   -9.7270 hc       756 PE      -0.019800
   4534 H22        -6.4970  -11.5850   -9.0170 hc       756 PE      -0.019800
   4535 C1         -7.6470   -9.9250   -8.1270 c3       756 PE       0.039600
   4536 C2         -6.4070  -10.5150   -8.7870 c3       756 PE       0.039600
   4537 H11        -5.0370   -9.1850   -7.5670 hc       757 PE      -0.019800
   4538 H12        -5.1470  -10.8250   -7.0170 hc       757 PE      -0.019800
   4539 H21        -3.8770  -10.4150   -9.7170 hc       757 PE      -0.019800
   4540 H22        -3.8270  -11.7350   -8.5570 hc       757 PE      -0.019800
   4541 C1         -5.1270  -10.2150   -7.9270 c3       757 PE       0.039600
   4542 C2         -3.8370  -10.6350   -8.6370 c3       757 PE       0.039600
   4543 H11        -2.7770   -8.9950   -7.7470 hc       758 PE      -0.019800
   4544 H12        -2.5370  -10.4950   -6.9470 hc       758 PE      -0.019800
   4545 H21        -1.4370   -9.9050   -9.7370 hc       758 PE      -0.019800
   4546 H22        -1.2070  -11.3750   -8.9170 hc       758 PE      -0.019800
   4547 C1         -2.6770  -10.0650   -7.9470 c3       758 PE       0.039600
   4548 C2         -1.3070  -10.3050   -8.7170 c3       758 PE       0.039600
   4549 H11        -0.3170   -8.5450   -7.9070 hc       759 PE      -0.019800
   4550 H12        -0.0370  -10.0950   -7.0570 hc       759 PE      -0.019800
   4551 H21         1.1530   -9.1950   -9.7870 hc       759 PE      -0.019800
   4552 H22         1.3230  -10.7650   -9.1670 hc       759 PE      -0.019800
   4553 C1         -0.2070   -9.6250   -8.0370 c3       759 PE       0.039600
   4554 C2          1.1630   -9.7350   -8.8270 c3       759 PE       0.039600
   4555 H11         2.1830   -8.1350   -7.5670 hc       760 PE      -0.019800
   4556 H12         2.5230   -9.8350   -7.2270 hc       760 PE      -0.019800
   4557 H21         3.3330   -8.1750   -9.6670 hc       760 PE      -0.019800
   4558 H22         3.8330   -9.8650   -9.4070 hc       760 PE      -0.019800
   4559 C1          2.3230   -9.1150   -8.0270 c3       760 PE       0.039600
   4560 C2          3.5830   -8.9250   -8.9070 c3       760 PE       0.039600
   4561 H11         4.6130   -7.3750   -7.7470 hc       761 PE      -0.019800
   4562 H12         4.8530   -9.1350   -7.3270 hc       761 PE      -0.019800
   4563 H21         6.0430   -7.4450   -9.6070 hc       761 PE      -0.019800
   4564 H22         6.1030   -9.2150   -9.5670 hc       761 PE      -0.019800
   4565 C1          4.7830   -8.3850   -8.1270 c3       761 PE       0.039600
   4566 C2          6.0630   -8.3150   -8.9370 c3       761 PE       0.039600
   4567 H11         7.4130   -7.2250   -7.6970 hc       762 PE      -0.019800
   4568 H12         7.3030   -8.8750   -7.1870 hc       762 PE      -0.019800
   4569 H21         8.8030   -7.8650   -9.7970 hc       762 PE      -0.019800
   4570 H22         8.7530   -9.5350   -9.1870 hc       762 PE      -0.019800
   4571 C1          7.3930   -8.2550   -8.0870 c3       762 PE       0.039600
   4572 C2          8.7030   -8.4750   -8.8970 c3       762 PE       0.039600
   4573 H11         9.7730   -7.0950   -7.6570 hc       763 PE      -0.019800
   4574 H12         9.9230   -8.8150   -7.1670 hc       763 PE      -0.019800
   4575 H21        11.4430   -7.4350   -9.4270 hc       763 PE      -0.019800
   4576 H22        11.5130   -9.1350   -9.1570 hc       763 PE      -0.019800
   4577 C1          9.9430   -8.1250   -8.0170 c3       763 PE       0.039600
   4578 C2         11.3630   -8.1850   -8.6270 c3       763 PE       0.039600
   4579 H11        12.3830   -6.9050   -7.1270 hc       764 PE      -0.019800
   4580 H12        12.4930   -8.7150   -6.8570 hc       764 PE      -0.019800
   4581 H21        13.9830   -7.1550   -9.0970 hc       764 PE      -0.019800
   4582 H22        14.1930   -8.8950   -8.7970 hc       764 PE      -0.019800
   4583 C1         12.5030   -7.9050   -7.5870 c3       764 PE       0.039600
   4584 C2         13.9330   -7.9350   -8.3270 c3       764 PE       0.039600
   4585 H11        14.7630   -6.5850   -6.7970 hc       765 PE      -0.019800
   4586 H12        15.2230   -8.2950   -6.7070 hc       765 PE      -0.019800
   4587 H21        16.1230   -6.3150   -8.8970 hc       765 PE      -0.019800
   4588 H22        16.5030   -8.0850   -8.7770 hc       765 PE      -0.019800
   4589 C1         15.0330   -7.4650   -7.3970 c3       765 PE       0.039600
   4590 C2         16.2930   -7.1550   -8.2170 c3       765 PE       0.039600
   4591 H11        17.3530   -6.1150   -6.7770 hc       766 PE      -0.019800
   4592 H12        17.7630   -7.7650   -6.7070 hc       766 PE      -0.019800
   4593 H21        18.5430   -5.8850   -9.0770 hc       766 PE      -0.019800
   4594 H22        18.9930   -7.5350   -8.9870 hc       766 PE      -0.019800
   4595 C1         17.5930   -6.9650   -7.4270 c3       766 PE       0.039600
   4596 C2         18.8130   -6.6550   -8.3470 c3       766 PE       0.039600
   4597 H11        19.9230   -5.3150   -7.1170 hc       767 PE      -0.019800
   4598 H12        20.2030   -6.9050   -6.6570 hc       767 PE      -0.019800
   4599 H21        21.2030   -5.7650   -9.3870 hc       767 PE      -0.019800
   4600 H22        21.7130   -7.2650   -8.6070 hc       767 PE      -0.019800
   4601 C1         20.0630   -6.3050   -7.5670 c3       767 PE       0.039600
   4602 C2         21.3730   -6.2350   -8.4170 c3       767 PE       0.039600
   4603 H11        22.2330   -4.4450   -7.4270 hc       768 PE      -0.019800
   4604 H12        22.8830   -6.0750   -6.9170 hc       768 PE      -0.019800
   4605 H21        23.4530   -4.6550   -9.4970 hc       768 PE      -0.019800
   4606 H22        24.1830   -6.1750   -8.8570 hc       768 PE      -0.019800
   4607 C1         22.4830   -5.4650   -7.7370 c3       768 PE       0.039600
   4608 C2         23.7230   -5.2150   -8.5870 c3       768 PE       0.039600
   4609 H11        24.5930   -3.2950   -7.7770 hc       769 PE      -0.019800
   4610 H12        25.0130   -4.7850   -6.8470 hc       769 PE      -0.019800
   4611 H21        26.0730   -3.8150   -9.5470 hc       769 PE      -0.019800
   4612 H22        26.2230   -5.4750   -8.9670 hc       769 PE      -0.019800
   4613 C1         24.8330   -4.3650   -7.8370 c3       769 PE       0.039600
   4614 C2         26.1030   -4.4350   -8.6370 c3       769 PE       0.039600
   4615 H11        27.3530   -3.0850   -7.4070 hc       770 PE      -0.019800
   4616 H12        27.4430   -4.8150   -7.0170 hc       770 PE      -0.019800
   4617 H21        28.4930   -3.3050   -9.3970 hc       770 PE      -0.019800
   4618 H22        28.8830   -5.0150   -9.2070 hc       770 PE      -0.019800
   4619 C1         27.3430   -4.0950   -7.8370 c3       770 PE       0.039600
   4620 C2         28.6930   -4.0850   -8.6570 c3       770 PE       0.039600
   4621 H11        29.8630   -2.6250   -7.2970 hc       771 PE      -0.019800
   4622 H12        30.0030   -4.2950   -7.0070 hc       771 PE      -0.019800
   4623 H21        31.1330   -3.0550   -9.6070 hc       771 PE      -0.019800
   4624 H22        31.3930   -4.6850   -8.9570 hc       771 PE      -0.019800
   4625 C1         29.9230   -3.5750   -7.8270 c3       771 PE       0.039600
   4626 C2         31.2530   -3.6250   -8.6770 c3       771 PE       0.039600
   4627 H11        32.1830   -2.1550   -7.2670 hc       772 PE      -0.019800
   4628 H12        32.6530   -3.8050   -6.9670 hc       772 PE      -0.019800
   4629 H21        33.5230   -2.1350   -9.4970 hc       772 PE      -0.019800
   4630 H22        34.0430   -3.8250   -9.0470 hc       772 PE      -0.019800
   4631 C1         32.4530   -3.0950   -7.7770 c3       772 PE       0.039600
   4632 C2         33.7230   -2.8450   -8.6770 c3       772 PE       0.039600
   4633 H11        34.7230   -1.5850   -7.0970 hc       773 PE      -0.019800
   4634 H12        35.1630   -3.2850   -7.1070 hc       773 PE      -0.019800
   4635 H21        36.0130   -1.2050   -9.3270 hc       773 PE      -0.019800
   4636 H22        36.4830   -2.8650   -9.2870 hc       773 PE      -0.019800
   4637 C1         34.9430   -2.4350   -7.7570 c3       773 PE       0.039600
   4638 C2         36.1930   -2.0350   -8.6270 c3       773 PE       0.039600
   4639 H11        37.0330   -0.8450   -7.0470 hc       774 PE      -0.019800
   4640 H12        37.4930   -2.4950   -7.0270 hc       774 PE      -0.019800
   4641 H21        38.2130   -0.4350   -9.0870 hc       774 PE      -0.019800
   4642 H22        38.8130   -2.0550   -9.1770 hc       774 PE      -0.019800
   4643 C1         37.3530   -1.6550   -7.7170 c3       774 PE       0.039600
   4644 C2         38.6130   -1.2450   -8.4670 c3       774 PE       0.039600
   4645 H11       -40.5870    0.0450   -7.0170 hc       775 PE      -0.019800
   4646 H12       -39.8770   -1.6350   -7.0070 hc       775 PE      -0.019800
   4647 H21       -39.4270    0.6950   -9.0270 hc       775 PE      -0.019800
   4648 H22       -39.1170   -0.9850   -9.3570 hc       775 PE      -0.019800
   4649 C1        -40.2370   -0.8050   -7.6270 c3       775 PE       0.039600
   4650 C2        -39.1970   -0.2550   -8.5370 c3       775 PE       0.039600
   4651 H11       -37.9870    0.8850   -7.1770 hc       776 PE      -0.019800
   4652 H12       -37.4170   -0.7450   -7.2470 hc       776 PE      -0.019800
   4653 H21       -37.1670    1.4350   -9.3770 hc       776 PE      -0.019800
   4654 H22       -36.5270   -0.1750   -9.6270 hc       776 PE      -0.019800
   4655 C1        -37.8070    0.0650   -7.8770 c3       776 PE       0.039600
   4656 C2        -36.7070    0.5850   -8.8570 c3       776 PE       0.039600
   4657 H11       -35.6370    1.6450   -7.2870 hc       777 PE      -0.019800
   4658 H12       -35.0070    0.0050   -7.6770 hc       777 PE      -0.019800
   4659 H21       -34.5870    2.4550   -9.4870 hc       777 PE      -0.019800
   4660 H22       -34.3070    0.7750   -9.9670 hc       777 PE      -0.019800
   4661 C1        -35.4270    0.9350   -8.0970 c3       777 PE       0.039600
   4662 C2        -34.3370    1.4550   -9.1070 c3       777 PE       0.039600
   4663 H11       -33.1870    1.6350   -7.3070 hc       778 PE      -0.019800
   4664 H12       -32.7870    0.1750   -8.1770 hc       778 PE      -0.019800
   4665 H21       -31.9970    3.0850   -9.0270 hc       778 PE      -0.019800
   4666 H22       -31.5470    1.5550   -9.8770 hc       778 PE      -0.019800
   4667 C1        -33.0170    1.2350   -8.3170 c3       778 PE       0.039600
   4668 C2        -31.7770    2.0150   -8.9070 c3       778 PE       0.039600
   4669 H11       -30.9470    2.2450   -7.0270 hc       779 PE      -0.019800
   4670 H12       -30.3270    0.8550   -7.8670 hc       779 PE      -0.019800
   4671 H21       -28.8270    2.1450   -9.2370 hc       779 PE      -0.019800
   4672 H22       -28.6170    2.6750   -7.7370 hc       779 PE      -0.019800
   4673 C1        -30.5870    1.9150   -8.0070 c3       779 PE       0.039600
   4674 C2        -29.3770    2.7550   -8.5170 c3       779 PE       0.039600
   4675 H11       -30.1870    4.3150   -9.7970 hc       780 PE      -0.019800
   4676 H12       -30.2270    4.7450   -8.0070 hc       780 PE      -0.019800
   4677 H21       -28.2170    5.9350   -9.1970 hc       780 PE      -0.019800
   4678 H22       -27.3970    4.2950   -9.2470 hc       780 PE      -0.019800
   4679 C1        -29.6870    4.2650   -8.8270 c3       780 PE       0.039600
   4680 C2        -28.2570    4.8850   -8.9070 c3       780 PE       0.039600
   4681 H11        -4.8170  -36.0250   -2.4070 hc       781 PE      -0.019800
   4682 H12        -3.1370  -36.0050   -1.6270 hc       781 PE      -0.019800
   4683 H21        -5.4370  -37.9550   -1.0770 hc       781 PE      -0.019800
   4684 H22        -5.0770  -36.6150   -0.0270 hc       781 PE      -0.019800
   4685 C1         -4.0170  -36.5950   -1.9270 c3       781 PE       0.039600
   4686 C2         -4.6070  -37.3250   -0.7170 c3       781 PE       0.039600
   4687 H11        -2.7470  -37.7150    0.5430 hc       782 PE      -0.019800
   4688 H12        -3.9970  -38.8350    0.7930 hc       782 PE      -0.019800
   4689 H21        -2.1370  -38.5850   -1.7070 hc       782 PE      -0.019800
   4690 H22        -3.4270  -39.7950   -1.5670 hc       782 PE      -0.019800
   4691 C1         -3.5270  -38.2450   -0.0170 c3       782 PE       0.039600
   4692 C2         -2.6970  -39.2050   -0.9970 c3       782 PE       0.039600
   4693 H11        -1.2870   40.5050    0.6530 hc       783 PE      -0.019800
   4694 H12        -2.4270   39.2550    0.4530 hc       783 PE      -0.019800
   4695 H21        -1.2270   38.6550   -1.8370 hc       783 PE      -0.019800
   4696 H22        -0.4570   38.2050   -0.3670 hc       783 PE      -0.019800
   4697 C1         -1.7870   39.9250   -0.1370 c3       783 PE       0.039600
   4698 C2         -0.7670   39.0850   -0.9470 c3       783 PE       0.039600
   4699 H11         0.2930   40.6750   -2.0070 hc       784 PE      -0.019800
   4700 H12         0.8930   40.6050   -0.3670 hc       784 PE      -0.019800
   4701 H21         1.1930   38.7750   -2.6870 hc       784 PE      -0.019800
   4702 H22         1.7430   38.1550   -1.0670 hc       784 PE      -0.019800
   4703 C1          0.5130   39.9850   -1.1870 c3       784 PE       0.039600
   4704 C2          1.6030   39.0350   -1.7070 c3       784 PE       0.039600
   4705 H11         2.7730   40.4350   -2.7970 hc       785 PE      -0.019800
   4706 H12         3.6330   39.9950   -1.2570 hc       785 PE      -0.019800
   4707 H21         3.4230   38.4550   -3.9070 hc       785 PE      -0.019800
   4708 H22         3.7630   37.6150   -2.3070 hc       785 PE      -0.019800
   4709 C1          3.0230   39.6250   -2.0970 c3       785 PE       0.039600
   4710 C2          3.8430   38.5350   -2.8970 c3       785 PE       0.039600
   4711 H11         5.5330   39.7650   -3.5970 hc       786 PE      -0.019800
   4712 H12         5.8930   38.9350   -2.0570 hc       786 PE      -0.019800
   4713 H21         5.6730   37.6050   -4.7870 hc       786 PE      -0.019800
   4714 H22         5.7030   36.7450   -3.2970 hc       786 PE      -0.019800
   4715 C1          5.3930   38.8350   -3.0270 c3       786 PE       0.039600
   4716 C2          6.0330   37.6850   -3.7570 c3       786 PE       0.039600
   4717 H11         7.9130   37.2950   -2.7470 hc       787 PE      -0.019800
   4718 H12         7.8730   36.8250   -4.4170 hc       787 PE      -0.019800
   4719 H21         8.5130   39.5350   -3.1370 hc       787 PE      -0.019800
   4720 H22         7.7030   39.6350   -4.6570 hc       787 PE      -0.019800
   4721 C1          7.6030   37.6450   -3.7370 c3       787 PE       0.039600
   4722 C2          8.3230   38.9650   -4.0570 c3       787 PE       0.039600
   4723 H11        10.3530   38.0450   -3.8770 hc       788 PE      -0.019800
   4724 H12         9.7930   38.0750   -5.4770 hc       788 PE      -0.019800
   4725 H21        10.0730   40.5950   -5.5470 hc       788 PE      -0.019800
   4726 H22        11.5430   39.6150   -5.3470 hc       788 PE      -0.019800
   4727 C1          9.7630   38.6750   -4.5470 c3       788 PE       0.039600
   4728 C2         10.6130   39.9350   -4.8570 c3       788 PE       0.039600
   4729 H11         9.9430  -38.8250   -3.2770 hc       789 PE      -0.019800
   4730 H12        11.3630  -39.7550   -2.8070 hc       789 PE      -0.019800
   4731 H21        11.7130  -37.2050   -3.1970 hc       789 PE      -0.019800
   4732 H22        11.4630  -37.4050   -4.9770 hc       789 PE      -0.019800
   4733 C1         10.9130  -39.1850   -3.6370 c3       789 PE       0.039600
   4734 C2         11.8030  -37.8850   -4.0570 c3       789 PE       0.039600
   4735 H11        13.5830  -38.6950   -3.1370 hc       790 PE      -0.019800
   4736 H12        13.4830  -38.8750   -4.9370 hc       790 PE      -0.019800
   4737 H21        13.8330  -36.1450   -3.5870 hc       790 PE      -0.019800
   4738 H22        14.1630  -36.5950   -5.2570 hc       790 PE      -0.019800
   4739 C1         13.3130  -38.2050   -4.0770 c3       790 PE       0.039600
   4740 C2         14.2430  -36.9450   -4.2170 c3       790 PE       0.039600
   4741 H11        15.7030  -37.5850   -2.7370 hc       791 PE      -0.019800
   4742 H12        16.0530  -38.1950   -4.3570 hc       791 PE      -0.019800
   4743 H21        16.5330  -35.3850   -3.3270 hc       791 PE      -0.019800
   4744 H22        16.7330  -35.8950   -4.9970 hc       791 PE      -0.019800
   4745 C1         15.7230  -37.3150   -3.7970 c3       791 PE       0.039600
   4746 C2         16.7630  -36.2550   -3.9670 c3       791 PE       0.039600
   4747 H11        18.1230  -37.2850   -2.6570 hc       792 PE      -0.019800
   4748 H12        18.6030  -37.4950   -4.2770 hc       792 PE      -0.019800
   4749 H21        18.7930  -34.8350   -2.6870 hc       792 PE      -0.019800
   4750 H22        19.3630  -35.0350   -4.3070 hc       792 PE      -0.019800
   4751 C1         18.2130  -36.7350   -3.5970 c3       792 PE       0.039600
   4752 C2         19.2130  -35.5850   -3.3670 c3       792 PE       0.039600
   4753 H11        21.2630  -35.2250   -3.0770 hc       793 PE      -0.019800
   4754 H12        20.5330  -36.3450   -1.8270 hc       793 PE      -0.019800
   4755 H21        20.6030  -38.2150   -3.4770 hc       793 PE      -0.019800
   4756 H22        22.0630  -37.5250   -3.1070 hc       793 PE      -0.019800
   4757 C1         20.6030  -36.0750   -2.8870 c3       793 PE       0.039600
   4758 C2         21.1530  -37.2850   -3.6670 c3       793 PE       0.039600
   4759 H11        20.4930  -36.6950   -5.5670 hc       794 PE      -0.019800
   4760 H12        22.3530  -36.5650   -5.3170 hc       794 PE      -0.019800
   4761 H21        20.7130  -38.9450   -5.8170 hc       794 PE      -0.019800
   4762 H22        22.2530  -39.0550   -5.1370 hc       794 PE      -0.019800
   4763 C1         21.4130  -37.1250   -5.1570 c3       794 PE       0.039600
   4764 C2         21.6830  -38.4450   -5.8470 c3       794 PE       0.039600
   4765 H11        21.5530  -37.5950   -7.8670 hc       795 PE      -0.019800
   4766 H12        23.1830  -37.7850   -7.1170 hc       795 PE      -0.019800
   4767 H21        22.5730  -39.5850   -9.1370 hc       795 PE      -0.019800
   4768 H22        21.2930  -40.0950   -8.0570 hc       795 PE      -0.019800
   4769 C1         22.2230  -38.2750   -7.3170 c3       795 PE       0.039600
   4770 C2         22.2930  -39.6350   -8.0770 c3       795 PE       0.039600
   4771 H11        23.9730   39.7650   -6.8570 hc       796 PE      -0.019800
   4772 H12        22.6330   38.7050   -6.6370 hc       796 PE      -0.019800
   4773 H21        24.3730   38.8850   -9.1170 hc       796 PE      -0.019800
   4774 H22        23.0330   37.8450   -8.9770 hc       796 PE      -0.019800
   4775 C1         23.1630   39.2750   -7.4170 c3       796 PE       0.039600
   4776 C2         23.8430   38.2650   -8.3770 c3       796 PE       0.039600
   4777 H11        25.6330   37.6650   -7.2370 hc       797 PE      -0.019800
   4778 H12        24.1530   36.7850   -6.8870 hc       797 PE      -0.019800
   4779 H21        25.6730   36.4650   -9.5870 hc       797 PE      -0.019800
   4780 H22        24.4030   35.5250   -9.1170 hc       797 PE      -0.019800
   4781 C1         24.7530   37.2050   -7.6970 c3       797 PE       0.039600
   4782 C2         25.2430   36.0550   -8.6570 c3       797 PE       0.039600
   4783 H11        26.9430   35.8750   -7.3870 hc       798 PE      -0.019800
   4784 H12        25.8230   34.5350   -7.2270 hc       798 PE      -0.019800
   4785 H21        27.3930   34.7350   -9.8070 hc       798 PE      -0.019800
   4786 H22        26.0930   33.6350   -9.3370 hc       798 PE      -0.019800
   4787 C1         26.3130   35.1950   -7.9570 c3       798 PE       0.039600
   4788 C2         26.9830   34.1650   -8.9670 c3       798 PE       0.039600
   4789 H11        28.8230   34.0650   -7.8370 hc       799 PE      -0.019800
   4790 H12        27.6030   32.8850   -7.4070 hc       799 PE      -0.019800
   4791 H21        29.3530   32.8850   -9.8670 hc       799 PE      -0.019800
   4792 H22        28.0030   31.6950   -9.6370 hc       799 PE      -0.019800
   4793 C1         28.0830   33.3750   -8.2670 c3       799 PE       0.039600
   4794 C2         28.7530   32.3250   -9.1370 c3       799 PE       0.039600
   4795 H11        30.2730   32.0450   -7.6770 hc       800 PE      -0.019800
   4796 H12        29.0330   30.8450   -7.5370 hc       800 PE      -0.019800
   4797 H21        31.1730   30.8050   -9.6470 hc       800 PE      -0.019800
   4798 H22        29.6830   29.7450   -9.5470 hc       800 PE      -0.019800
   4799 C1         29.6330   31.3850   -8.2770 c3       800 PE       0.039600
   4800 C2         30.4230   30.3250   -8.9970 c3       800 PE       0.039600
   4801 H11        32.0530   30.2350   -7.4670 hc       801 PE      -0.019800
   4802 H12        30.8130   29.0350   -7.1470 hc       801 PE      -0.019800
   4803 H21        32.7230   28.9250   -9.6170 hc       801 PE      -0.019800
   4804 H22        31.4330   27.7850   -9.3170 hc       801 PE      -0.019800
   4805 C1         31.3230   29.5750   -7.9570 c3       801 PE       0.039600
   4806 C2         32.1030   28.4950   -8.8170 c3       801 PE       0.039600
   4807 H11        33.7930   28.1750   -7.5170 hc       802 PE      -0.019800
   4808 H12        32.3430   27.2850   -7.0570 hc       802 PE      -0.019800
   4809 H21        33.8030   26.5550   -9.5970 hc       802 PE      -0.019800
   4810 H22        32.5430   25.6450   -8.7270 hc       802 PE      -0.019800
   4811 C1         32.9530   27.5950   -7.9170 c3       802 PE       0.039600
   4812 C2         33.4230   26.2950   -8.5970 c3       802 PE       0.039600
   4813 H11        35.3330   26.2150   -7.7670 hc       803 PE      -0.019800
   4814 H12        34.1530   25.0750   -7.0070 hc       803 PE      -0.019800
   4815 H21        35.5130   24.6250   -9.8470 hc       803 PE      -0.019800
   4816 H22        34.3330   23.6250   -9.1470 hc       803 PE      -0.019800
   4817 C1         34.5330   25.4850   -7.9570 c3       803 PE       0.039600
   4818 C2         35.1630   24.2750   -8.8670 c3       803 PE       0.039600
   4819 H11        37.0230   24.3450   -7.8170 hc       804 PE      -0.019800
   4820 H12        35.8530   23.1350   -7.0670 hc       804 PE      -0.019800
   4821 H21        37.1330   22.8250   -9.7770 hc       804 PE      -0.019800
   4822 H22        35.8730   21.8750   -9.0270 hc       804 PE      -0.019800
   4823 C1         36.2730   23.5750   -7.9770 c3       804 PE       0.039600
   4824 C2         36.7930   22.4350   -8.8070 c3       804 PE       0.039600
   4825 H11        38.6430   22.3350   -7.7670 hc       805 PE      -0.019800
   4826 H12        37.5030   21.0950   -7.1670 hc       805 PE      -0.019800
   4827 H21        39.1430   21.0650   -9.7570 hc       805 PE      -0.019800
   4828 H22        37.9130   19.7950   -9.2470 hc       805 PE      -0.019800
   4829 C1         37.8930   21.5950   -8.0670 c3       805 PE       0.039600
   4830 C2         38.6330   20.5550   -8.9270 c3       805 PE       0.039600
   4831 H11       -39.5670   20.5450   -7.6170 hc       806 PE      -0.019800
   4832 H12       -40.7370   19.2950   -7.1370 hc       806 PE      -0.019800
   4833 H21       -38.8870   19.3450   -9.5270 hc       806 PE      -0.019800
   4834 H22       -40.3170   18.2150   -9.4870 hc       806 PE      -0.019800
   4835 C1        -40.3070   19.8250   -7.9970 c3       806 PE       0.039600
   4836 C2        -39.5270   18.7050   -8.9070 c3       806 PE       0.039600
   4837 H11       -37.9370   18.1850   -7.3970 hc       807 PE      -0.019800
   4838 H12       -39.3570   17.1250   -7.4870 hc       807 PE      -0.019800
   4839 H21       -37.0770   17.4750   -9.5470 hc       807 PE      -0.019800
   4840 H22       -38.3170   16.2150   -9.6170 hc       807 PE      -0.019800
   4841 C1        -38.6370   17.7050   -8.0970 c3       807 PE       0.039600
   4842 C2        -37.7370   16.8450   -8.9370 c3       807 PE       0.039600
   4843 H11       -36.2870   16.5650   -7.3070 hc       808 PE      -0.019800
   4844 H12       -37.4870   15.2850   -7.4770 hc       808 PE      -0.019800
   4845 H21       -34.9970   15.7550   -9.2370 hc       808 PE      -0.019800
   4846 H22       -36.3870   14.9050   -9.8570 hc       808 PE      -0.019800
   4847 C1        -36.8470   15.9750   -8.0370 c3       808 PE       0.039600
   4848 C2        -35.8270   15.1150   -8.9370 c3       808 PE       0.039600
   4849 H11       -34.4470   13.6050   -8.7570 hc       809 PE      -0.019800
   4850 H12       -35.0670   13.9850   -7.1770 hc       809 PE      -0.019800
   4851 H21       -36.4370   12.3550   -9.3770 hc       809 PE      -0.019800
   4852 H22       -37.2570   12.7550   -7.9070 hc       809 PE      -0.019800
   4853 C1        -35.3770   13.8350   -8.2170 c3       809 PE       0.039600
   4854 C2        -36.2570   12.5750   -8.3170 c3       809 PE       0.039600
   4855 H11       -34.6570   11.4050   -7.5870 hc       810 PE      -0.019800
   4856 H12       -36.1370   11.4950   -6.5670 hc       810 PE      -0.019800
   4857 H21       -36.0270    9.3250   -7.4070 hc       810 PE      -0.019800
   4858 H22       -35.8770    9.9150   -9.0870 hc       810 PE      -0.019800
   4859 C1        -35.7570   11.4050   -7.5970 c3       810 PE       0.039600
   4860 C2        -36.3570   10.0950   -8.1170 c3       810 PE       0.039600
   4861 H11         3.0230   33.0350    4.7430 hc       811 PE      -0.019800
   4862 H12         3.7230   32.6250    3.0630 hc       811 PE      -0.019800
   4863 H21         1.8130   31.0250    2.9430 hc       811 PE      -0.019800
   4864 H22         1.4630   32.8150    2.7030 hc       811 PE      -0.019800
   4865 C1          3.0830   32.3350    3.9030 c3       811 PE       0.039600
   4866 C2          1.7030   32.0150    3.4130 c3       811 PE       0.039600
   4867 H11         0.5530   31.2050    5.0930 hc       812 PE      -0.019800
   4868 H12         0.4930   32.9550    5.0130 hc       812 PE      -0.019800
   4869 H21        -0.8170   31.0150    2.9530 hc       812 PE      -0.019800
   4870 H22        -0.8670   32.7650    2.7930 hc       812 PE      -0.019800
   4871 C1          0.4830   32.0450    4.4030 c3       812 PE       0.039600
   4872 C2         -0.8570   31.9450    3.5230 c3       812 PE       0.039600
   4873 H11        -1.9970   31.0450    5.1930 hc       813 PE      -0.019800
   4874 H12        -2.0970   32.7850    4.9830 hc       813 PE      -0.019800
   4875 H21        -3.1970   30.9850    2.7230 hc       813 PE      -0.019800
   4876 H22        -3.7670   32.5550    3.0630 hc       813 PE      -0.019800
   4877 C1         -2.0770   31.8350    4.4330 c3       813 PE       0.039600
   4878 C2         -3.4170   31.6450    3.5730 c3       813 PE       0.039600
   4879 H11        -4.3870   30.4050    5.0730 hc       814 PE      -0.019800
   4880 H12        -4.7770   32.0250    5.2830 hc       814 PE      -0.019800
   4881 H21        -5.6970   29.9050    3.1830 hc       814 PE      -0.019800
   4882 H22        -5.9070   31.5750    2.7330 hc       814 PE      -0.019800
   4883 C1         -4.6270   31.2950    4.4830 c3       814 PE       0.039600
   4884 C2         -5.8370   30.9150    3.6030 c3       814 PE       0.039600
   4885 H11        -7.0070   30.1750    5.2330 hc       815 PE      -0.019800
   4886 H12        -7.1470   31.8650    5.0430 hc       815 PE      -0.019800
   4887 H21        -8.2270   29.7550    3.1030 hc       815 PE      -0.019800
   4888 H22        -8.6870   31.3950    2.8630 hc       815 PE      -0.019800
   4889 C1         -7.1370   30.9350    4.4530 c3       815 PE       0.039600
   4890 C2         -8.3970   30.6950    3.6530 c3       815 PE       0.039600
   4891 H11        -9.3570   29.7950    5.3630 hc       816 PE      -0.019800
   4892 H12        -9.5270   31.5050    5.1130 hc       816 PE      -0.019800
   4893 H21       -10.8170   29.5150    3.2530 hc       816 PE      -0.019800
   4894 H22       -11.0370   31.2850    3.1730 hc       816 PE      -0.019800
   4895 C1         -9.5770   30.5450    4.5930 c3       816 PE       0.039600
   4896 C2        -10.8770   30.4350    3.8430 c3       816 PE       0.039600
   4897 H11       -11.8670   29.3950    5.4230 hc       817 PE      -0.019800
   4898 H12       -12.3670   31.0850    5.2730 hc       817 PE      -0.019800
   4899 H21       -13.2570   28.9750    3.3330 hc       817 PE      -0.019800
   4900 H22       -13.5470   30.6650    3.0130 hc       817 PE      -0.019800
   4901 C1        -12.0870   30.1950    4.7030 c3       817 PE       0.039600
   4902 C2        -13.3270   29.9550    3.8230 c3       817 PE       0.039600
   4903 H11       -14.5270   28.9850    5.4630 hc       818 PE      -0.019800
   4904 H12       -14.7870   30.7150    5.3430 hc       818 PE      -0.019800
   4905 H21       -15.7170   28.8850    3.1530 hc       818 PE      -0.019800
   4906 H22       -15.9270   30.4850    3.0830 hc       818 PE      -0.019800
   4907 C1        -14.6270   29.8050    4.7430 c3       818 PE       0.039600
   4908 C2        -15.8870   29.7050    3.8630 c3       818 PE       0.039600
   4909 H11       -17.0470   28.7550    5.4030 hc       819 PE      -0.019800
   4910 H12       -17.3770   30.4650    5.1530 hc       819 PE      -0.019800
   4911 H21       -18.1170   28.3950    3.0430 hc       819 PE      -0.019800
   4912 H22       -18.5470   30.0050    3.0430 hc       819 PE      -0.019800
   4913 C1        -17.1270   29.5350    4.6330 c3       819 PE       0.039600
   4914 C2        -18.3970   29.1850    3.7530 c3       819 PE       0.039600
   4915 H11       -19.6470   28.1550    5.1930 hc       820 PE      -0.019800
   4916 H12       -20.0070   29.8950    5.0130 hc       820 PE      -0.019800
   4917 H21       -20.5270   27.9250    2.8230 hc       820 PE      -0.019800
   4918 H22       -20.9670   29.5850    2.8030 hc       820 PE      -0.019800
   4919 C1        -19.7170   28.9850    4.4730 c3       820 PE       0.039600
   4920 C2        -20.8670   28.7250    3.4830 c3       820 PE       0.039600
   4921 H11       -22.4570   27.2950    3.8130 hc       821 PE      -0.019800
   4922 H12       -22.1270   28.3550    5.1430 hc       821 PE      -0.019800
   4923 H21       -23.3970   29.4650    2.5630 hc       821 PE      -0.019800
   4924 H22       -22.9970   30.2950    3.9230 hc       821 PE      -0.019800
   4925 C1        -22.1870   28.3250    4.0530 c3       821 PE       0.039600
   4926 C2        -23.3470   29.2950    3.6430 c3       821 PE       0.039600
   4927 H11       -25.3770   29.9650    4.0730 hc       822 PE      -0.019800
   4928 H12       -25.3870   28.3350    3.6630 hc       822 PE      -0.019800
   4929 H21       -24.4170   27.6550    5.7230 hc       822 PE      -0.019800
   4930 H22       -25.9670   28.4050    5.8830 hc       822 PE      -0.019800
   4931 C1        -24.8070   29.0450    4.2630 c3       822 PE       0.039600
   4932 C2        -24.9170   28.6250    5.6830 c3       822 PE       0.039600
   4933 H11       -23.6870   30.4250    6.2030 hc       823 PE      -0.019800
   4934 H12       -25.1970   30.2850    7.0030 hc       823 PE      -0.019800
   4935 H21       -23.0870   28.1050    7.5830 hc       823 PE      -0.019800
   4936 H22       -24.4070   28.7350    8.6030 hc       823 PE      -0.019800
   4937 C1        -24.3570   29.6750    6.6530 c3       823 PE       0.039600
   4938 C2        -23.6570   29.0050    7.8430 c3       823 PE       0.039600
   4939 H11       -22.9970   30.9250    8.5930 hc       824 PE      -0.019800
   4940 H12       -22.4370   29.6250    9.5630 hc       824 PE      -0.019800
   4941 H21       -21.0170   30.6650    7.1230 hc       824 PE      -0.019800
   4942 H22       -21.1570   28.9050    7.1930 hc       824 PE      -0.019800
   4943 C1        -22.5970   29.9050    8.5130 c3       824 PE       0.039600
   4944 C2        -21.2070   29.8150    7.7930 c3       824 PE       0.039600
   4945 H11       -20.3270   30.5750    9.5930 hc       825 PE      -0.019800
   4946 H12       -19.8270   28.8950    9.1330 hc       825 PE      -0.019800
   4947 H21       -18.7870   31.3650    7.5130 hc       825 PE      -0.019800
   4948 H22       -18.4270   29.6450    7.2030 hc       825 PE      -0.019800
   4949 C1        -20.0270   29.9050    8.7730 c3       825 PE       0.039600
   4950 C2        -18.6870   30.3850    7.9730 c3       825 PE       0.039600
   4951 H11       -17.6570   31.3550    9.6130 hc       826 PE      -0.019800
   4952 H12       -17.3270   29.6550    9.5530 hc       826 PE      -0.019800
   4953 H21       -16.2470   31.7250    7.6930 hc       826 PE      -0.019800
   4954 H22       -15.9570   30.0750    7.3030 hc       826 PE      -0.019800
   4955 C1        -17.4270   30.5350    8.9130 c3       826 PE       0.039600
   4956 C2        -16.0970   30.7450    8.1630 c3       826 PE       0.039600
   4957 H11       -15.1170   31.8450    9.6630 hc       827 PE      -0.019800
   4958 H12       -14.6270   30.0750    9.7330 hc       827 PE      -0.019800
   4959 H21       -13.7070   32.0650    7.6730 hc       827 PE      -0.019800
   4960 H22       -13.4070   30.4850    7.4430 hc       827 PE      -0.019800
   4961 C1        -14.8670   30.9350    9.0930 c3       827 PE       0.039600
   4962 C2        -13.6170   31.1650    8.2830 c3       827 PE       0.039600
   4963 H11       -12.4970   32.1150    9.8030 hc       828 PE      -0.019800
   4964 H12       -12.2270   30.3850    9.5530 hc       828 PE      -0.019800
   4965 H21       -11.1770   32.6350    7.6430 hc       828 PE      -0.019800
   4966 H22       -10.8270   30.8750    7.5230 hc       828 PE      -0.019800
   4967 C1        -12.3070   31.3550    9.0330 c3       828 PE       0.039600
   4968 C2        -11.0170   31.7050    8.2130 c3       828 PE       0.039600
   4969 H11        -9.5370   32.7250    9.5930 hc       829 PE      -0.019800
   4970 H12        -9.6770   30.9850    9.7630 hc       829 PE      -0.019800
   4971 H21        -8.4070   32.3650    7.2230 hc       829 PE      -0.019800
   4972 H22        -8.2370   30.7350    7.5430 hc       829 PE      -0.019800
   4973 C1         -9.7270   31.8050    9.0330 c3       829 PE       0.039600
   4974 C2         -8.4470   31.6750    8.0730 c3       829 PE       0.039600
   4975 H11        -7.3170   32.9850    9.3330 hc       830 PE      -0.019800
   4976 H12        -7.0570   31.4350    9.7030 hc       830 PE      -0.019800
   4977 H21        -5.9070   32.6550    7.1230 hc       830 PE      -0.019800
   4978 H22        -5.7270   31.0150    7.5530 hc       830 PE      -0.019800
   4979 C1         -7.1570   32.0350    8.7930 c3       830 PE       0.039600
   4980 C2         -5.8670   32.0050    8.0030 c3       830 PE       0.039600
   4981 H11        -4.8570   33.4350    9.4130 hc       831 PE      -0.019800
   4982 H12        -4.4270   31.7650    9.7230 hc       831 PE      -0.019800
   4983 H21        -3.4670   33.3050    7.2530 hc       831 PE      -0.019800
   4984 H22        -3.0770   31.7450    7.4630 hc       831 PE      -0.019800
   4985 C1         -4.6170   32.4850    8.9230 c3       831 PE       0.039600
   4986 C2         -3.2970   32.6250    8.0930 c3       831 PE       0.039600
   4987 H11        -2.2570   34.1750    9.1230 hc       832 PE      -0.019800
   4988 H12        -1.9070   32.5550    9.7930 hc       832 PE      -0.019800
   4989 H21        -1.0070   33.6650    7.1330 hc       832 PE      -0.019800
   4990 H22        -0.6070   32.0450    7.7530 hc       832 PE      -0.019800
   4991 C1         -2.0970   33.1150    8.8730 c3       832 PE       0.039600
   4992 C2         -0.7870   33.0850    8.0330 c3       832 PE       0.039600
   4993 H11         0.3530   34.4250    9.4130 hc       833 PE      -0.019800
   4994 H12         0.5630   32.6450    9.5830 hc       833 PE      -0.019800
   4995 H21         1.5430   34.1150    7.1330 hc       833 PE      -0.019800
   4996 H22         1.7030   32.4850    7.6830 hc       833 PE      -0.019800
   4997 C1          0.4330   33.4750    8.8730 c3       833 PE       0.039600
   4998 C2          1.6130   33.5150    8.0530 c3       833 PE       0.039600
   4999 H11         2.8730   34.6650    9.5430 hc       834 PE      -0.019800
   5000 H12         3.0130   32.9650    9.6330 hc       834 PE      -0.019800
   5001 H21         4.2530   34.7550    7.4530 hc       834 PE      -0.019800
   5002 H22         4.2430   33.0050    7.3830 hc       834 PE      -0.019800
   5003 C1          2.9230   33.7750    8.9030 c3       834 PE       0.039600
   5004 C2          4.2030   33.8550    8.0730 c3       834 PE       0.039600
   5005 H11         5.4030   34.6950    9.6930 hc       835 PE      -0.019800
   5006 H12         5.3830   33.0250    9.7030 hc       835 PE      -0.019800
   5007 H21         6.6030   34.6250    7.3830 hc       835 PE      -0.019800
   5008 H22         6.7430   32.9150    7.4930 hc       835 PE      -0.019800
   5009 C1          5.4530   33.8550    8.9930 c3       835 PE       0.039600
   5010 C2          6.7130   33.8150    8.1130 c3       835 PE       0.039600
   5011 H11         7.7330   34.9650    9.5130 hc       836 PE      -0.019800
   5012 H12         8.0030   33.2150    9.6830 hc       836 PE      -0.019800
   5013 H21         9.0830   34.9250    7.3630 hc       836 PE      -0.019800
   5014 H22         9.3230   33.1850    7.6430 hc       836 PE      -0.019800
   5015 C1          7.9430   34.0450    8.9730 c3       836 PE       0.039600
   5016 C2          9.2130   34.1650    8.1430 c3       836 PE       0.039600
   5017 H11        10.4630   35.4950    9.2830 hc       837 PE      -0.019800
   5018 H12        10.5930   33.7650    9.6830 hc       837 PE      -0.019800
   5019 H21        11.6330   35.3050    7.2230 hc       837 PE      -0.019800
   5020 H22        11.6930   33.5050    7.2630 hc       837 PE      -0.019800
   5021 C1         10.4630   34.4850    8.8630 c3       837 PE       0.039600
   5022 C2         11.6930   34.4150    7.8630 c3       837 PE       0.039600
   5023 H11        12.9730   35.1050    9.4230 hc       838 PE      -0.019800
   5024 H12        13.1330   33.4050    8.9230 hc       838 PE      -0.019800
   5025 H21        14.0830   35.8550    7.2830 hc       838 PE      -0.019800
   5026 H22        14.2130   34.2150    6.7530 hc       838 PE      -0.019800
   5027 C1         13.0230   34.4350    8.5530 c3       838 PE       0.039600
   5028 C2         14.1830   34.8250    7.6530 c3       838 PE       0.039600
   5029 H11        16.2330   35.2650    7.8330 hc       839 PE      -0.019800
   5030 H12        15.3130   35.0350    9.3630 hc       839 PE      -0.019800
   5031 H21        16.0330   32.7150    7.4030 hc       839 PE      -0.019800
   5032 H22        15.2830   32.5250    8.9430 hc       839 PE      -0.019800
   5033 C1         15.5530   34.6150    8.3830 c3       839 PE       0.039600
   5034 C2         16.0330   33.1350    8.4130 c3       839 PE       0.039600
   5035 H11        18.0830   33.6250    8.6030 hc       840 PE      -0.019800
   5036 H12        17.2530   33.4050   10.1730 hc       840 PE      -0.019800
   5037 H21        17.9630   31.1250    8.1830 hc       840 PE      -0.019800
   5038 H22        17.1430   30.9350    9.7530 hc       840 PE      -0.019800
   5039 C1         17.4030   32.9850    9.1630 c3       840 PE       0.039600
   5040 C2         17.8730   31.5350    9.2030 c3       840 PE       0.039600
   5041 H11        35.4130   28.0150    8.3730 hc       841 PE      -0.019800
   5042 H12        33.8930   27.4050    9.0430 hc       841 PE      -0.019800
   5043 H21        36.0730   25.8150    9.0230 hc       841 PE      -0.019800
   5044 H22        35.7630   25.6250    7.3530 hc       841 PE      -0.019800
   5045 C1         34.6230   27.2650    8.2330 c3       841 PE       0.039600
   5046 C2         35.2530   25.8250    8.3030 c3       841 PE       0.039600
   5047 H11        33.9630   24.9950    9.7130 hc       842 PE      -0.019800
   5048 H12        33.3530   24.9750    8.0630 hc       842 PE      -0.019800
   5049 H21        35.6130   23.2550    9.2730 hc       842 PE      -0.019800
   5050 H22        35.0130   23.1350    7.5730 hc       842 PE      -0.019800
   5051 C1         34.2430   24.7950    8.6730 c3       842 PE       0.039600
   5052 C2         34.7330   23.3050    8.6230 c3       842 PE       0.039600
   5053 H11        33.4930   22.3550   10.1130 hc       843 PE      -0.019800
   5054 H12        32.7530   22.4050    8.5230 hc       843 PE      -0.019800
   5055 H21        34.8230   20.5450    9.6230 hc       843 PE      -0.019800
   5056 H22        34.5830   20.6550    7.8330 hc       843 PE      -0.019800
   5057 C1         33.7030   22.2250    9.0430 c3       843 PE       0.039600
   5058 C2         34.1230   20.7850    8.8130 c3       843 PE       0.039600
   5059 H11        32.4730   19.7750    9.9330 hc       844 PE      -0.019800
   5060 H12        32.1730   20.0550    8.1830 hc       844 PE      -0.019800
   5061 H21        33.8830   17.9350    9.5930 hc       844 PE      -0.019800
   5062 H22        34.2030   18.2650    7.9130 hc       844 PE      -0.019800
   5063 C1         32.9230   19.7750    8.9330 c3       844 PE       0.039600
   5064 C2         33.4230   18.3250    8.6830 c3       844 PE       0.039600
   5065 H11        31.5430   17.1750    8.9730 hc       845 PE      -0.019800
   5066 H12        31.6330   17.8950    7.3430 hc       845 PE      -0.019800
   5067 H21        33.1530   15.5050    8.5030 hc       845 PE      -0.019800
   5068 H22        33.4430   16.2050    6.8530 hc       845 PE      -0.019800
   5069 C1         32.2130   17.4150    8.1430 c3       845 PE       0.039600
   5070 C2         32.6930   16.0050    7.6430 c3       845 PE       0.039600
   5071 H11        30.8930   14.9350    8.0230 hc       846 PE      -0.019800
   5072 H12        31.0530   15.5850    6.2930 hc       846 PE      -0.019800
   5073 H21        31.1830   13.0750    6.5130 hc       846 PE      -0.019800
   5074 H22        32.6530   13.2550    7.6530 hc       846 PE      -0.019800
   5075 C1         31.5330   15.0950    7.1530 c3       846 PE       0.039600
   5076 C2         32.0830   13.6450    6.8030 c3       846 PE       0.039600
   5077 H11        32.7830   14.2450    4.7330 hc       847 PE      -0.019800
   5078 H12        34.0330   14.2350    5.8330 hc       847 PE      -0.019800
   5079 H21        32.8930   11.4550    5.4330 hc       847 PE      -0.019800
   5080 H22        34.4130   12.0450    6.0930 hc       847 PE      -0.019800
   5081 C1         33.1430   13.6450    5.5730 c3       847 PE       0.039600
   5082 C2         33.6630   12.2350    5.3130 c3       847 PE       0.039600
   5083 H11        34.9930   12.9850    3.7630 hc       848 PE      -0.019800
   5084 H12        34.9930   11.1750    3.9830 hc       848 PE      -0.019800
   5085 H21        33.1230   12.9550    2.3030 hc       848 PE      -0.019800
   5086 H22        32.4430   11.4850    3.0730 hc       848 PE      -0.019800
   5087 C1         34.3830   12.0850    3.9430 c3       848 PE       0.039600
   5088 C2         33.3630   11.9850    2.7430 c3       848 PE       0.039600
   5089 H11        34.9130   11.5650    1.1930 hc       849 PE      -0.019800
   5090 H12        34.2630   10.1450    1.9330 hc       849 PE      -0.019800
   5091 H21        33.5630   10.5550   -0.3670 hc       849 PE      -0.019800
   5092 H22        32.3930   11.7950    0.2630 hc       849 PE      -0.019800
   5093 C1         33.9830   11.1450    1.5930 c3       849 PE       0.039600
   5094 C2         33.0030   10.9150    0.5030 c3       849 PE       0.039600
   5095 H11        32.1730    8.8650    0.4130 hc       850 PE      -0.019800
   5096 H12        31.8730    9.6050    1.9730 hc       850 PE      -0.019800
   5097 H21        30.6530   10.4350   -0.7070 hc       850 PE      -0.019800
   5098 H22        30.1030   11.0050    0.9330 hc       850 PE      -0.019800
   5099 C1         31.9830    9.8350    0.9030 c3       850 PE       0.039600
   5100 C2         30.5730   10.1950    0.3630 c3       850 PE       0.039600
   5101 H11        29.9530    8.0950    0.0830 hc       851 PE      -0.019800
   5102 H12        29.6730    8.9450    1.7130 hc       851 PE      -0.019800
   5103 H21        28.2330    9.8250   -0.6970 hc       851 PE      -0.019800
   5104 H22        27.8830   10.0650    0.8730 hc       851 PE      -0.019800
   5105 C1         29.6230    8.9850    0.6230 c3       851 PE       0.039600
   5106 C2         28.2130    9.2350    0.2330 c3       851 PE       0.039600
   5107 H11        27.3930    7.2250   -0.3070 hc       852 PE      -0.019800
   5108 H12        27.2530    7.6450    1.2830 hc       852 PE      -0.019800
   5109 H21        25.6330    9.0850   -1.0370 hc       852 PE      -0.019800
   5110 H22        25.5530    9.3350    0.8430 hc       852 PE      -0.019800
   5111 C1         27.1530    8.1050    0.2930 c3       852 PE       0.039600
   5112 C2         25.6630    8.6750   -0.0270 c3       852 PE       0.039600
   5113 H11        25.0530    6.7350   -0.6170 hc       853 PE      -0.019800
   5114 H12        24.9130    6.9950    1.1030 hc       853 PE      -0.019800
   5115 H21        23.1630    8.3250   -1.0470 hc       853 PE      -0.019800
   5116 H22        22.9230    8.4750    0.7230 hc       853 PE      -0.019800
   5117 C1         24.7630    7.4850    0.1330 c3       853 PE       0.039600
   5118 C2         23.2230    7.8050   -0.0870 c3       853 PE       0.039600
   5119 H11        22.4830    5.9250   -0.8870 hc       854 PE      -0.019800
   5120 H12        22.7530    5.9750    0.8730 hc       854 PE      -0.019800
   5121 H21        20.6630    7.6950   -0.4070 hc       854 PE      -0.019800
   5122 H22        20.9530    7.5150    1.2130 hc       854 PE      -0.019800
   5123 C1         22.3930    6.5550    0.0130 c3       854 PE       0.039600
   5124 C2         20.9430    6.9050    0.2930 c3       854 PE       0.039600
   5125 H11        20.0230    5.1950   -0.8070 hc       855 PE      -0.019800
   5126 H12        19.9430    5.2550    1.0530 hc       855 PE      -0.019800
   5127 H21        18.2530    6.9950   -0.9770 hc       855 PE      -0.019800
   5128 H22        18.1130    7.0950    0.7830 hc       855 PE      -0.019800
   5129 C1         19.8330    5.7950    0.1030 c3       855 PE       0.039600
   5130 C2         18.3830    6.4250   -0.0470 c3       855 PE       0.039600
   5131 H11        17.5130    4.7950   -1.0070 hc       856 PE      -0.019800
   5132 H12        17.5630    4.6250    0.7530 hc       856 PE      -0.019800
   5133 H21        15.7430    6.3950   -0.9970 hc       856 PE      -0.019800
   5134 H22        15.8530    6.5350    0.7930 hc       856 PE      -0.019800
   5135 C1         17.3830    5.3350   -0.0670 c3       856 PE       0.039600
   5136 C2         15.9530    5.8550   -0.0670 c3       856 PE       0.039600
   5137 H11        15.1330    4.0050   -0.8070 hc       857 PE      -0.019800
   5138 H12        14.9230    4.1150    0.9330 hc       857 PE      -0.019800
   5139 H21        13.3930    5.9650   -1.0170 hc       857 PE      -0.019800
   5140 H22        13.2730    5.8550    0.7830 hc       857 PE      -0.019800
   5141 C1         14.9330    4.7150    0.0130 c3       857 PE       0.039600
   5142 C2         13.4430    5.2950   -0.1470 c3       857 PE       0.039600
   5143 H11        12.7530    3.4250   -1.0770 hc       858 PE      -0.019800
   5144 H12        12.4430    3.5450    0.6030 hc       858 PE      -0.019800
   5145 H21        10.7130    4.9850   -1.3570 hc       858 PE      -0.019800
   5146 H22        10.7730    5.3650    0.4330 hc       858 PE      -0.019800
   5147 C1         12.4330    4.1450   -0.3070 c3       858 PE       0.039600
   5148 C2         10.9530    4.6250   -0.3470 c3       858 PE       0.039600
   5149 H11        10.2730    2.6650   -0.6870 hc       859 PE      -0.019800
   5150 H12        10.0530    3.2050    1.0130 hc       859 PE      -0.019800
   5151 H21         7.9230    2.9950   -0.4370 hc       859 PE      -0.019800
   5152 H22         8.4530    4.3750   -1.4370 hc       859 PE      -0.019800
   5153 C1          9.9530    3.4950   -0.0370 c3       859 PE       0.039600
   5154 C2          8.4730    3.9450   -0.4170 c3       859 PE       0.039600
   5155 H11         7.6230    4.4150    1.5830 hc       860 PE      -0.019800
   5156 H12         8.6330    5.6850    0.8130 hc       860 PE      -0.019800
   5157 H21         6.0930    4.8850   -0.4270 hc       860 PE      -0.019800
   5158 H22         6.9530    6.4150   -0.6470 hc       860 PE      -0.019800
   5159 C1          7.8930    4.8950    0.6330 c3       860 PE       0.039600
   5160 C2          6.6630    5.6650    0.1030 c3       860 PE       0.039600
   5161 H11         4.9330    6.6350    0.6930 hc       861 PE      -0.019800
   5162 H12         5.5430    5.5950    2.0530 hc       861 PE      -0.019800
   5163 H21         6.8330    8.1850    1.0530 hc       861 PE      -0.019800
   5164 H22         7.5830    7.1750    2.3230 hc       861 PE      -0.019800
   5165 C1          5.8130    6.2850    1.2430 c3       861 PE       0.039600
   5166 C2          6.6330    7.5050    1.8930 c3       861 PE       0.039600
   5167 H11         5.8430    9.2350    2.9330 hc       862 PE      -0.019800
   5168 H12         4.7430    7.8150    2.8830 hc       862 PE      -0.019800
   5169 H21         6.5130    6.5850    4.2530 hc       862 PE      -0.019800
   5170 H22         5.4630    7.6750    5.1630 hc       862 PE      -0.019800
   5171 C1          5.7930    8.1450    3.0030 c3       862 PE       0.039600
   5172 C2          6.2430    7.6450    4.3930 c3       862 PE       0.039600
   5173 H11         8.4130    8.2550    4.0930 hc       863 PE      -0.019800
   5174 H12         7.3030    9.3650    4.9230 hc       863 PE      -0.019800
   5175 H21         8.5230    6.7050    5.9230 hc       863 PE      -0.019800
   5176 H22         7.2930    7.4350    6.8530 hc       863 PE      -0.019800
   5177 C1          7.6130    8.3150    4.8430 c3       863 PE       0.039600
   5178 C2          8.1530    7.6950    6.2230 c3       863 PE       0.039600
   5179 H11         9.5530    9.3050    6.1530 hc       864 PE      -0.019800
   5180 H12         8.7330    9.1850    7.6730 hc       864 PE      -0.019800
   5181 H21        10.9430    7.2550    6.8030 hc       864 PE      -0.019800
   5182 H22        10.0230    7.2050    8.4230 hc       864 PE      -0.019800
   5183 C1          9.2430    8.5750    6.9130 c3       864 PE       0.039600
   5184 C2         10.4030    7.8150    7.5830 c3       864 PE       0.039600
   5185 H11        11.6730    9.5450    7.5530 hc       865 PE      -0.019800
   5186 H12        10.9930    9.0750    9.2030 hc       865 PE      -0.019800
   5187 H21        13.0530    7.4150    7.7330 hc       865 PE      -0.019800
   5188 H22        12.4430    7.3850    9.4130 hc       865 PE      -0.019800
   5189 C1         11.4030    8.7350    8.2430 c3       865 PE       0.039600
   5190 C2         12.6630    8.0350    8.5530 c3       865 PE       0.039600
   5191 H11        14.0430    9.7750    8.3430 hc       866 PE      -0.019800
   5192 H12        13.6430    9.3050   10.0530 hc       866 PE      -0.019800
   5193 H21        15.2230    7.4350    8.2030 hc       866 PE      -0.019800
   5194 H22        15.1030    7.6350   10.0130 hc       866 PE      -0.019800
   5195 C1         13.8530    8.9550    9.0430 c3       866 PE       0.039600
   5196 C2         15.2330    8.1350    9.0430 c3       866 PE       0.039600
   5197 H11        16.5230    9.6750    8.0830 hc       867 PE      -0.019800
   5198 H12        16.4030    9.7650    9.8630 hc       867 PE      -0.019800
   5199 H21        18.0330    7.6950    8.2730 hc       867 PE      -0.019800
   5200 H22        18.0830    7.8950   10.0630 hc       867 PE      -0.019800
   5201 C1         16.4630    9.0850    9.0030 c3       867 PE       0.039600
   5202 C2         17.9230    8.3950    9.1030 c3       867 PE       0.039600
   5203 H11        18.6230    9.8350    8.0030 hc       868 PE      -0.019800
   5204 H12        18.7730   10.2750    9.7230 hc       868 PE      -0.019800
   5205 H21        20.5030    8.3750    8.1030 hc       868 PE      -0.019800
   5206 H22        20.4830    8.2750    9.7430 hc       868 PE      -0.019800
   5207 C1         18.9230    9.4650    8.9930 c3       868 PE       0.039600
   5208 C2         20.3630    9.0450    8.9730 c3       868 PE       0.039600
   5209 H11        21.0530   11.0250    8.2430 hc       869 PE      -0.019800
   5210 H12        21.0130   10.9050    9.9030 hc       869 PE      -0.019800
   5211 H21        22.9230    9.2050    8.1730 hc       869 PE      -0.019800
   5212 H22        23.1530    9.5850    9.9930 hc       869 PE      -0.019800
   5213 C1         21.3430   10.3250    9.0330 c3       869 PE       0.039600
   5214 C2         22.8430    9.9250    8.9930 c3       869 PE       0.039600
   5215 H11        23.4930   11.2350    7.5430 hc       870 PE      -0.019800
   5216 H12        23.4430   11.9350    9.1630 hc       870 PE      -0.019800
   5217 H21        25.6430   10.0150    8.0330 hc       870 PE      -0.019800
   5218 H22        25.8730   11.6850    8.2730 hc       870 PE      -0.019800
   5219 C1         23.8030   11.0750    8.5830 c3       870 PE       0.039600
   5220 C2         25.2930   10.8450    8.6630 c3       870 PE       0.039600
   5221 H11       -13.1470  -17.3850   -9.2570 hc       871 PE      -0.019800
   5222 H12       -12.1870  -17.3650   -7.6970 hc       871 PE      -0.019800
   5223 H21       -14.2070  -16.1250   -6.9770 hc       871 PE      -0.019800
   5224 H22       -14.6970  -17.7050   -6.6470 hc       871 PE      -0.019800
   5225 C1        -13.1370  -17.5950   -8.1870 c3       871 PE       0.039600
   5226 C2        -14.4170  -17.0650   -7.4970 c3       871 PE       0.039600
   5227 H11       -15.4170  -16.5250   -9.4470 hc       872 PE      -0.019800
   5228 H12       -15.7570  -18.1450   -8.9370 hc       872 PE      -0.019800
   5229 H21       -16.8970  -15.7250   -7.5170 hc       872 PE      -0.019800
   5230 H22       -17.3570  -17.4050   -7.2470 hc       872 PE      -0.019800
   5231 C1        -15.6070  -17.1250   -8.5570 c3       872 PE       0.039600
   5232 C2        -16.9770  -16.7050   -7.9970 c3       872 PE       0.039600
   5233 H11       -17.7570  -15.9550   -9.7970 hc       873 PE      -0.019800
   5234 H12       -18.0470  -17.6850   -9.6970 hc       873 PE      -0.019800
   5235 H21       -19.7570  -17.3650   -8.0370 hc       873 PE      -0.019800
   5236 H22       -20.1270  -16.4150   -9.5170 hc       873 PE      -0.019800
   5237 C1        -18.0970  -16.7550   -9.1170 c3       873 PE       0.039600
   5238 C2        -19.5070  -16.4550   -8.6070 c3       873 PE       0.039600
   5239 H11       -20.7970  -15.0550   -7.6570 hc       874 PE      -0.019800
   5240 H12       -19.0870  -15.1650   -6.9170 hc       874 PE      -0.019800
   5241 H21       -19.7670  -13.9550   -9.5670 hc       874 PE      -0.019800
   5242 H22       -18.2070  -13.8750   -8.9570 hc       874 PE      -0.019800
   5243 C1        -19.7170  -15.1150   -7.8270 c3       874 PE       0.039600
   5244 C2        -19.2370  -13.9550   -8.6070 c3       874 PE       0.039600
   5245 H11       -20.5670  -12.6850   -7.4270 hc       875 PE      -0.019800
   5246 H12       -18.9370  -12.6750   -6.8370 hc       875 PE      -0.019800
   5247 H21       -20.1670  -11.4750   -9.3570 hc       875 PE      -0.019800
   5248 H22       -18.3570  -11.5550   -9.0770 hc       875 PE      -0.019800
   5249 C1        -19.5270  -12.7050   -7.7570 c3       875 PE       0.039600
   5250 C2        -19.3570  -11.4650   -8.6170 c3       875 PE       0.039600
   5251 H11       -20.3570   -9.9250   -7.3770 hc       876 PE      -0.019800
   5252 H12       -18.6570  -10.2150   -7.0370 hc       876 PE      -0.019800
   5253 H21       -19.8070   -8.7550   -9.6270 hc       876 PE      -0.019800
   5254 H22       -18.0570   -9.1650   -9.4670 hc       876 PE      -0.019800
   5255 C1        -19.3870  -10.1250   -7.8470 c3       876 PE       0.039600
   5256 C2        -18.9970   -9.0050   -8.9270 c3       876 PE       0.039600
   5257 H11       -19.8170   -7.2950   -7.6970 hc       877 PE      -0.019800
   5258 H12       -18.2870   -7.8750   -7.1870 hc       877 PE      -0.019800
   5259 H21       -18.8870   -6.2750   -9.7670 hc       877 PE      -0.019800
   5260 H22       -17.2370   -6.9350   -9.3570 hc       877 PE      -0.019800
   5261 C1        -18.8570   -7.6450   -8.0970 c3       877 PE       0.039600
   5262 C2        -18.1670   -6.4950   -8.9770 c3       877 PE       0.039600
   5263 H11       -18.7370   -4.8150   -7.6470 hc       878 PE      -0.019800
   5264 H12       -17.2270   -5.5750   -7.2770 hc       878 PE      -0.019800
   5265 H21       -17.8870   -3.6750   -9.6070 hc       878 PE      -0.019800
   5266 H22       -16.4270   -4.4750   -9.6470 hc       878 PE      -0.019800
   5267 C1        -17.8270   -5.2050   -8.1170 c3       878 PE       0.039600
   5268 C2        -17.1470   -4.0950   -8.9070 c3       878 PE       0.039600
   5269 H11       -17.2270   -2.6550   -7.2470 hc       879 PE      -0.019800
   5270 H12       -15.7670   -3.6050   -7.2770 hc       879 PE      -0.019800
   5271 H21       -16.2670   -1.7850   -9.6270 hc       879 PE      -0.019800
   5272 H22       -14.8170   -2.4750   -9.0470 hc       879 PE      -0.019800
   5273 C1        -16.4770   -3.0850   -7.9270 c3       879 PE       0.039600
   5274 C2        -15.7470   -2.0250   -8.6970 c3       879 PE       0.039600
   5275 H11       -16.4070   -0.5850   -7.2770 hc       880 PE      -0.019800
   5276 H12       -14.7370   -1.1750   -6.9970 hc       880 PE      -0.019800
   5277 H21       -15.7270    0.8150   -9.0870 hc       880 PE      -0.019800
   5278 H22       -14.1470    0.1450   -9.2470 hc       880 PE      -0.019800
   5279 C1        -15.4570   -0.8450   -7.7570 c3       880 PE       0.039600
   5280 C2        -14.9070    0.3950   -8.4970 c3       880 PE       0.039600
   5281 H11       -15.0370    1.8450   -6.8570 hc       881 PE      -0.019800
   5282 H12       -13.4970    1.0250   -6.9870 hc       881 PE      -0.019800
   5283 H21       -14.5070    3.2150   -8.9870 hc       881 PE      -0.019800
   5284 H22       -12.8870    2.5450   -8.9770 hc       881 PE      -0.019800
   5285 C1        -14.2670    1.5350   -7.5770 c3       881 PE       0.039600
   5286 C2        -13.7370    2.7850   -8.3270 c3       881 PE       0.039600
   5287 H11       -14.1370    4.2250   -6.6370 hc       882 PE      -0.019800
   5288 H12       -12.5470    3.6550   -6.6570 hc       882 PE      -0.019800
   5289 H21       -13.5970    5.4550   -8.9370 hc       882 PE      -0.019800
   5290 H22       -11.9770    4.7350   -8.6170 hc       882 PE      -0.019800
   5291 C1        -13.3470    3.9350   -7.3470 c3       882 PE       0.039600
   5292 C2        -12.8670    5.1750   -8.1670 c3       882 PE       0.039600
   5293 H11       -13.2170    6.8450   -6.9070 hc       883 PE      -0.019800
   5294 H12       -11.8170    5.9850   -6.3970 hc       883 PE      -0.019800
   5295 H21       -12.2770    7.8550   -8.9270 hc       883 PE      -0.019800
   5296 H22       -10.7370    6.9950   -8.5970 hc       883 PE      -0.019800
   5297 C1        -12.3270    6.3350   -7.3070 c3       883 PE       0.039600
   5298 C2        -11.6170    7.4650   -8.1470 c3       883 PE       0.039600
   5299 H11       -11.8170    8.8450   -6.3770 hc       884 PE      -0.019800
   5300 H12       -10.2270    8.0950   -6.6370 hc       884 PE      -0.019800
   5301 H21       -11.4570   10.3050   -8.4170 hc       884 PE      -0.019800
   5302 H22       -10.0070    9.5350   -8.8170 hc       884 PE      -0.019800
   5303 C1        -11.0770    8.5750   -7.1370 c3       884 PE       0.039600
   5304 C2        -10.5870    9.8350   -7.9370 c3       884 PE       0.039600
   5305 H11       -10.5570   11.0350   -6.2270 hc       885 PE      -0.019800
   5306 H12        -8.9970   10.3450   -6.6070 hc       885 PE      -0.019800
   5307 H21       -10.3370   12.3850   -8.4570 hc       885 PE      -0.019800
   5308 H22        -8.6370   11.7850   -8.4470 hc       885 PE      -0.019800
   5309 C1         -9.8670   10.8450   -7.0570 c3       885 PE       0.039600
   5310 C2         -9.4970   12.0950   -7.8270 c3       885 PE       0.039600
   5311 H11        -8.2970   13.0550   -6.2870 hc       886 PE      -0.019800
   5312 H12        -8.9070   14.1450   -7.5070 hc       886 PE      -0.019800
   5313 H21       -10.9770   12.9950   -5.7770 hc       886 PE      -0.019800
   5314 H22       -10.8670   14.5750   -6.6670 hc       886 PE      -0.019800
   5315 C1         -9.1770   13.2750   -6.8970 c3       886 PE       0.039600
   5316 C2        -10.3270   13.8150   -6.0870 c3       886 PE       0.039600
   5317 H11        -9.3170   13.7950   -4.0970 hc       887 PE      -0.019800
   5318 H12        -8.9370   15.1850   -5.1570 hc       887 PE      -0.019800
   5319 H21       -10.9870   16.1150   -4.8170 hc       887 PE      -0.019800
   5320 H22       -10.2270   15.9250   -3.2270 hc       887 PE      -0.019800
   5321 C1         -9.7370   14.5050   -4.8170 c3       887 PE       0.039600
   5322 C2        -10.7170   15.3850   -4.0470 c3       887 PE       0.039600
   5323 H11       -12.6270   15.4550   -2.8670 hc       888 PE      -0.019800
   5324 H12       -12.6270   14.3950   -4.3370 hc       888 PE      -0.019800
   5325 H21       -11.2170   13.7750   -1.5970 hc       888 PE      -0.019800
   5326 H22       -11.2370   12.8450   -3.0370 hc       888 PE      -0.019800
   5327 C1        -12.0870   14.6950   -3.4370 c3       888 PE       0.039600
   5328 C2        -11.8570   13.5450   -2.4570 c3       888 PE       0.039600
   5329 H11       -13.7370   13.5950   -1.5270 hc       889 PE      -0.019800
   5330 H12       -13.8070   12.5250   -2.8470 hc       889 PE      -0.019800
   5331 H21       -12.3970   11.8750   -0.2070 hc       889 PE      -0.019800
   5332 H22       -12.1270   10.9050   -1.6670 hc       889 PE      -0.019800
   5333 C1        -13.1370   12.8450   -2.0370 c3       889 PE       0.039600
   5334 C2        -12.8470   11.5650   -1.1570 c3       889 PE       0.039600
   5335 H11       -14.7770   11.4750   -0.1370 hc       890 PE      -0.019800
   5336 H12       -14.7570   10.8350   -1.7870 hc       890 PE      -0.019800
   5337 H21       -13.8270    9.4250    0.7330 hc       890 PE      -0.019800
   5338 H22       -13.3170    8.8850   -0.9070 hc       890 PE      -0.019800
   5339 C1        -14.1770   10.9150   -0.8670 c3       890 PE       0.039600
   5340 C2        -14.0470    9.4550   -0.3370 c3       890 PE       0.039600
   5341 H11       -16.2870    9.1150    0.2530 hc       891 PE      -0.019800
   5342 H12       -15.8670    8.6550   -1.3870 hc       891 PE      -0.019800
   5343 H21       -14.7870    7.3450    1.0530 hc       891 PE      -0.019800
   5344 H22       -14.5370    6.7850   -0.6770 hc       891 PE      -0.019800
   5345 C1        -15.4870    8.6750   -0.3570 c3       891 PE       0.039600
   5346 C2        -15.2270    7.2250    0.0530 c3       891 PE       0.039600
   5347 H11       -17.0870    6.6850    0.8230 hc       892 PE      -0.019800
   5348 H12       -17.0970    6.5950   -0.9870 hc       892 PE      -0.019800
   5349 H21       -15.4770    4.7150    0.8030 hc       892 PE      -0.019800
   5350 H22       -15.4670    4.5550   -0.8870 hc       892 PE      -0.019800
   5351 C1        -16.5470    6.3550   -0.0670 c3       892 PE       0.039600
   5352 C2        -16.1270    4.8750   -0.0670 c3       892 PE       0.039600
   5353 H11       -17.7170    3.8650    1.0030 hc       893 PE      -0.019800
   5354 H12       -18.0970    4.0450   -0.6870 hc       893 PE      -0.019800
   5355 H21       -16.1470    2.0950    0.6630 hc       893 PE      -0.019800
   5356 H22       -16.0070    2.3850   -1.0870 hc       893 PE      -0.019800
   5357 C1        -17.2770    3.8150    0.0030 c3       893 PE       0.039600
   5358 C2        -16.7070    2.3550   -0.2470 c3       893 PE       0.039600
   5359 H11       -18.6170    1.5050    0.2030 hc       894 PE      -0.019800
   5360 H12       -18.1970    1.2850   -1.5070 hc       894 PE      -0.019800
   5361 H21       -16.9470   -0.0850    0.8530 hc       894 PE      -0.019800
   5362 H22       -16.3470   -0.3050   -0.7770 hc       894 PE      -0.019800
   5363 C1        -17.7970    1.3050   -0.4970 c3       894 PE       0.039600
   5364 C2        -17.2570   -0.1350   -0.1970 c3       894 PE       0.039600
   5365 H11       -19.0770   -1.3050    0.3930 hc       895 PE      -0.019800
   5366 H12       -18.8470   -1.1950   -1.3070 hc       895 PE      -0.019800
   5367 H21       -16.8770   -2.6550    0.5130 hc       895 PE      -0.019800
   5368 H22       -17.0170   -2.8050   -1.3570 hc       895 PE      -0.019800
   5369 C1        -18.2870   -1.2950   -0.3670 c3       895 PE       0.039600
   5370 C2        -17.5070   -2.6650   -0.3870 c3       895 PE       0.039600
   5371 H11       -19.1970   -3.7450    0.6130 hc       896 PE      -0.019800
   5372 H12       -19.1170   -3.8350   -1.1970 hc       896 PE      -0.019800
   5373 H21       -17.0470   -5.3050    0.6630 hc       896 PE      -0.019800
   5374 H22       -17.2970   -5.3550   -1.1670 hc       896 PE      -0.019800
   5375 C1        -18.5470   -3.8850   -0.2670 c3       896 PE       0.039600
   5376 C2        -17.7670   -5.2750   -0.1770 c3       896 PE       0.039600
   5377 H11       -19.3070   -6.4150    0.9630 hc       897 PE      -0.019800
   5378 H12       -19.5270   -6.2750   -0.8370 hc       897 PE      -0.019800
   5379 H21       -17.6370   -8.1950    0.6830 hc       897 PE      -0.019800
   5380 H22       -17.4970   -7.9850   -1.0370 hc       897 PE      -0.019800
   5381 C1        -18.8170   -6.4350   -0.0170 c3       897 PE       0.039600
   5382 C2        -18.2070   -7.9050   -0.2070 c3       897 PE       0.039600
   5383 H11       -19.9270   -8.8950    0.6930 hc       898 PE      -0.019800
   5384 H12       -19.9670   -8.6750   -1.1170 hc       898 PE      -0.019800
   5385 H21       -18.0170  -10.5250    0.5630 hc       898 PE      -0.019800
   5386 H22       -18.2170  -10.5850   -1.2370 hc       898 PE      -0.019800
   5387 C1        -19.3370   -8.9050   -0.2370 c3       898 PE       0.039600
   5388 C2        -18.6970  -10.3650   -0.2770 c3       898 PE       0.039600
   5389 H11       -20.3270  -11.3850    0.8430 hc       899 PE      -0.019800
   5390 H12       -20.5470  -11.2050   -0.8170 hc       899 PE      -0.019800
   5391 H21       -18.3070  -13.2450   -0.0870 hc       899 PE      -0.019800
   5392 H22       -19.1870  -12.9550   -1.4670 hc       899 PE      -0.019800
   5393 C1        -19.7570  -11.4650   -0.0870 c3       899 PE       0.039600
   5394 C2        -19.3170  -12.9250   -0.3770 c3       899 PE       0.039600
   5395 H11       -20.3970  -13.7850    1.2230 hc       900 PE      -0.019800
   5396 H12       -21.3070  -13.7750   -0.2870 hc       900 PE      -0.019800
   5397 H21       -18.8670  -15.6550    0.2030 hc       900 PE      -0.019800
   5398 H22       -19.4670  -15.3950   -1.3370 hc       900 PE      -0.019800
   5399 C1        -20.2970  -13.9250    0.1330 c3       900 PE       0.039600
   5400 C2        -19.8070  -15.4150   -0.2970 c3       900 PE       0.039600
   5401 H11        29.0230   26.6350    7.7730 hc       901 PE      -0.019800
   5402 H12        30.7230   27.0550    8.3430 hc       901 PE      -0.019800
   5403 H21        29.7630   24.9550   10.0530 hc       901 PE      -0.019800
   5404 H22        30.9930   24.7450    8.8330 hc       901 PE      -0.019800
   5405 C1         29.8030   26.4950    8.5330 c3       901 PE       0.039600
   5406 C2         29.9530   25.0650    8.9830 c3       901 PE       0.039600
   5407 H11        28.0630   24.2850    8.5730 hc       902 PE      -0.019800
   5408 H12        29.2630   23.9850    7.2030 hc       902 PE      -0.019800
   5409 H21        29.1730   22.5750    9.9430 hc       902 PE      -0.019800
   5410 H22        30.3730   22.3950    8.7830 hc       902 PE      -0.019800
   5411 C1         29.0930   24.0150    8.2930 c3       902 PE       0.039600
   5412 C2         29.3030   22.6150    8.8530 c3       902 PE       0.039600
   5413 H11        27.4130   21.4650    8.4330 hc       903 PE      -0.019800
   5414 H12        28.6930   21.5350    7.1130 hc       903 PE      -0.019800
   5415 H21        28.6530   19.9150    9.6430 hc       903 PE      -0.019800
   5416 H22        29.9630   20.0050    8.4930 hc       903 PE      -0.019800
   5417 C1         28.4830   21.5050    8.1930 c3       903 PE       0.039600
   5418 C2         28.8730   20.0850    8.5730 c3       903 PE       0.039600
   5419 H11        28.2230   18.0050    8.4730 hc       904 PE      -0.019800
   5420 H12        27.1130   19.1150    7.8030 hc       904 PE      -0.019800
   5421 H21        29.5930   18.1950    6.3330 hc       904 PE      -0.019800
   5422 H22        28.5730   19.5750    5.8630 hc       904 PE      -0.019800
   5423 C1         28.1930   18.8950    7.8330 c3       904 PE       0.039600
   5424 C2         28.5730   18.6050    6.3730 c3       904 PE       0.039600
   5425 H11        27.9130   16.5450    5.9930 hc       905 PE      -0.019800
   5426 H12        26.6430   17.7850    5.8230 hc       905 PE      -0.019800
   5427 H21        27.5330   16.6550    3.6830 hc       905 PE      -0.019800
   5428 H22        29.0930   17.2750    4.0130 hc       905 PE      -0.019800
   5429 C1         27.7030   17.5650    5.6430 c3       905 PE       0.039600
   5430 C2         28.0330   17.5250    4.1330 c3       905 PE       0.039600
   5431 H11        26.8030   19.1950    3.8530 hc       906 PE      -0.019800
   5432 H12        28.4330   19.4650    3.1630 hc       906 PE      -0.019800
   5433 H21        26.5130   17.5450    1.9830 hc       906 PE      -0.019800
   5434 H22        28.0830   18.0750    1.2830 hc       906 PE      -0.019800
   5435 C1         27.6330   18.7250    3.3130 c3       906 PE       0.039600
   5436 C2         27.2130   18.3850    1.8830 c3       906 PE       0.039600
   5437 H11        25.5130   19.8250    1.7030 hc       907 PE      -0.019800
   5438 H12        27.0030   20.4850    1.2230 hc       907 PE      -0.019800
   5439 H21        25.7230   18.2950   -0.2670 hc       907 PE      -0.019800
   5440 H22        27.0430   19.3450   -0.8970 hc       907 PE      -0.019800
   5441 C1         26.4230   19.5450    1.1630 c3       907 PE       0.039600
   5442 C2         26.1330   19.3150   -0.2870 c3       907 PE       0.039600
   5443 H11        24.2330   20.1850    0.0030 hc       908 PE      -0.019800
   5444 H12        25.5030   21.3350   -0.6570 hc       908 PE      -0.019800
   5445 H21        24.3030   19.0350   -2.3570 hc       908 PE      -0.019800
   5446 H22        25.5130   20.0850   -2.8570 hc       908 PE      -0.019800
   5447 C1         25.0730   20.3250   -0.6870 c3       908 PE       0.039600
   5448 C2         24.6830   20.0450   -2.1570 c3       908 PE       0.039600
   5449 H11        22.6830   21.0450   -2.2170 hc       909 PE      -0.019800
   5450 H12        24.0230   22.0250   -2.7370 hc       909 PE      -0.019800
   5451 H21        22.6930   19.6150   -4.1870 hc       909 PE      -0.019800
   5452 H22        24.1630   20.5350   -4.8270 hc       909 PE      -0.019800
   5453 C1         23.6230   21.0050   -2.7670 c3       909 PE       0.039600
   5454 C2         23.2530   20.5550   -4.2070 c3       909 PE       0.039600
   5455 H11        21.3830   21.6350   -4.6270 hc       910 PE      -0.019800
   5456 H12        22.8530   22.5150   -5.0070 hc       910 PE      -0.019800
   5457 H21        21.5730   20.1050   -6.4470 hc       910 PE      -0.019800
   5458 H22        22.9630   20.9250   -7.0570 hc       910 PE      -0.019800
   5459 C1         22.3830   21.5350   -5.0670 c3       910 PE       0.039600
   5460 C2         22.0230   21.0950   -6.5070 c3       910 PE       0.039600
   5461 H11        20.1430   22.2450   -6.7570 hc       911 PE      -0.019800
   5462 H12        21.5730   23.1250   -7.2370 hc       911 PE      -0.019800
   5463 H21        22.0230   21.8350   -9.2370 hc       911 PE      -0.019800
   5464 H22        20.5230   22.6850   -9.2170 hc       911 PE      -0.019800
   5465 C1         21.1130   22.1350   -7.2470 c3       911 PE       0.039600
   5466 C2         21.0230   21.8150   -8.7770 c3       911 PE       0.039600
   5467 H11        19.8230   20.6950  -10.1970 hc       912 PE      -0.019800
   5468 H12        21.0030   19.7350   -9.2470 hc       912 PE      -0.019800
   5469 H21        18.6130   20.9550   -7.8170 hc       912 PE      -0.019800
   5470 H22        19.4530   19.3950   -7.4570 hc       912 PE      -0.019800
   5471 C1         20.2530   20.5350   -9.1970 c3       912 PE       0.039600
   5472 C2         19.0730   20.0550   -8.2470 c3       912 PE       0.039600
   5473 H11        17.6130   19.8450   -9.8670 hc       913 PE      -0.019800
   5474 H12        18.6030   18.4650   -9.5070 hc       913 PE      -0.019800
   5475 H21        16.7130   19.7450   -7.5070 hc       913 PE      -0.019800
   5476 H22        17.0530   18.0050   -7.5270 hc       913 PE      -0.019800
   5477 C1         18.0530   19.2850   -9.0370 c3       913 PE       0.039600
   5478 C2         16.8530   18.8750   -8.1570 c3       913 PE       0.039600
   5479 H11        15.2030   19.3150   -9.5470 hc       914 PE      -0.019800
   5480 H12        15.7030   17.6750   -9.7070 hc       914 PE      -0.019800
   5481 H21        14.1830   19.0350   -7.3570 hc       914 PE      -0.019800
   5482 H22        14.4230   17.2550   -7.4670 hc       914 PE      -0.019800
   5483 C1         15.5130   18.4450   -8.9470 c3       914 PE       0.039600
   5484 C2         14.2630   18.1850   -8.0470 c3       914 PE       0.039600
   5485 H11        12.7930   19.0750   -9.3070 hc       915 PE      -0.019800
   5486 H12        13.0130   17.3750   -9.6370 hc       915 PE      -0.019800
   5487 H21        11.7930   18.4250   -7.0170 hc       915 PE      -0.019800
   5488 H22        11.8430   16.7650   -7.3970 hc       915 PE      -0.019800
   5489 C1         12.9530   18.1050   -8.8170 c3       915 PE       0.039600
   5490 C2         11.7330   17.7450   -7.8770 c3       915 PE       0.039600
   5491 H11        10.2730   18.9550   -8.9670 hc       916 PE      -0.019800
   5492 H12        10.4130   17.2050   -9.4470 hc       916 PE      -0.019800
   5493 H21         9.3530   17.9650   -6.7370 hc       916 PE      -0.019800
   5494 H22         9.3330   16.4250   -7.4870 hc       916 PE      -0.019800
   5495 C1         10.3830   17.9250   -8.6170 c3       916 PE       0.039600
   5496 C2          9.2030   17.4950   -7.7070 c3       916 PE       0.039600
   5497 H11         8.0330   18.9250   -8.6370 hc       917 PE      -0.019800
   5498 H12         7.7230   17.3150   -9.2470 hc       917 PE      -0.019800
   5499 H21         6.7530   18.1750   -6.3970 hc       917 PE      -0.019800
   5500 H22         6.8330   16.5650   -7.0970 hc       917 PE      -0.019800
   5501 C1          7.8730   17.8850   -8.3270 c3       917 PE       0.039600
   5502 C2          6.6630   17.6250   -7.3470 c3       917 PE       0.039600
   5503 H11         5.1830   17.0650   -8.8370 hc       918 PE      -0.019800
   5504 H12         4.4930   17.3350   -7.2170 hc       918 PE      -0.019800
   5505 H21         5.4730   19.4650   -9.2670 hc       918 PE      -0.019800
   5506 H22         5.2930   19.7950   -7.5870 hc       918 PE      -0.019800
   5507 C1          5.2030   17.7150   -7.9570 c3       918 PE       0.039600
   5508 C2          4.9130   19.1450   -8.3770 c3       918 PE       0.039600
   5509 H11         3.3430   18.9550   -9.7370 hc       919 PE      -0.019800
   5510 H12         2.8730   18.7750   -8.0270 hc       919 PE      -0.019800
   5511 H21         3.3330   21.1950   -9.6770 hc       919 PE      -0.019800
   5512 H22         3.4230   21.4150   -7.9170 hc       919 PE      -0.019800
   5513 C1          3.4730   19.3550   -8.7270 c3       919 PE       0.039600
   5514 C2          2.9730   20.8050   -8.7170 c3       919 PE       0.039600
   5515 H11         0.9530   20.2450   -9.3170 hc       920 PE      -0.019800
   5516 H12         1.1530   20.3450   -7.6570 hc       920 PE      -0.019800
   5517 H21         1.2830   22.5650   -9.7070 hc       920 PE      -0.019800
   5518 H22         1.6430   22.9850   -8.0470 hc       920 PE      -0.019800
   5519 C1          1.4630   20.8650   -8.5670 c3       920 PE       0.039600
   5520 C2          1.0230   22.3250   -8.6670 c3       920 PE       0.039600
   5521 H11        -1.1370   21.8750   -8.7670 hc       921 PE      -0.019800
   5522 H12        -0.6470   22.2350   -7.2070 hc       921 PE      -0.019800
   5523 H21        -0.8270   24.3550   -9.3970 hc       921 PE      -0.019800
   5524 H22        -0.5770   24.6750   -7.6170 hc       921 PE      -0.019800
   5525 C1         -0.5070   22.5950   -8.2370 c3       921 PE       0.039600
   5526 C2         -1.0570   24.0350   -8.3770 c3       921 PE       0.039600
   5527 H11        -3.0870   23.4050   -8.8270 hc       922 PE      -0.019800
   5528 H12        -2.7170   23.7650   -7.0770 hc       922 PE      -0.019800
   5529 H21        -2.7470   25.8150   -9.3170 hc       922 PE      -0.019800
   5530 H22        -2.5570   26.1250   -7.5870 hc       922 PE      -0.019800
   5531 C1         -2.5670   24.0550   -8.1170 c3       922 PE       0.039600
   5532 C2         -3.0270   25.4550   -8.3170 c3       922 PE       0.039600
   5533 H11        -5.1670   24.8350   -8.6670 hc       923 PE      -0.019800
   5534 H12        -4.7770   25.3450   -6.9970 hc       923 PE      -0.019800
   5535 H21        -4.7670   27.3350   -9.3270 hc       923 PE      -0.019800
   5536 H22        -4.7270   27.6550   -7.6270 hc       923 PE      -0.019800
   5537 C1         -4.5770   25.5350   -8.0670 c3       923 PE       0.039600
   5538 C2         -5.1170   26.9350   -8.3670 c3       923 PE       0.039600
   5539 H11        -7.1170   26.4550   -9.0670 hc       924 PE      -0.019800
   5540 H12        -6.8970   26.2850   -7.4570 hc       924 PE      -0.019800
   5541 H21        -6.8170   29.0950   -8.9170 hc       924 PE      -0.019800
   5542 H22        -7.0570   28.9150   -7.2770 hc       924 PE      -0.019800
   5543 C1         -6.6570   27.0150   -8.2470 c3       924 PE       0.039600
   5544 C2         -7.2670   28.3850   -8.2170 c3       924 PE       0.039600
   5545 H11        -9.0270   28.0450   -9.3870 hc       925 PE      -0.019800
   5546 H12        -9.2270   27.8250   -7.5870 hc       925 PE      -0.019800
   5547 H21        -8.8070   30.4150   -9.1370 hc       925 PE      -0.019800
   5548 H22        -9.0570   30.3750   -7.4670 hc       925 PE      -0.019800
   5549 C1         -8.7770   28.4250   -8.3870 c3       925 PE       0.039600
   5550 C2         -9.3470   29.8450   -8.3770 c3       925 PE       0.039600
   5551 H11       -11.1770   29.5150   -9.5970 hc       926 PE      -0.019800
   5552 H12       -11.2970   29.3550   -7.7770 hc       926 PE      -0.019800
   5553 H21       -10.9470   32.0150   -9.3270 hc       926 PE      -0.019800
   5554 H22       -11.2270   31.7850   -7.5870 hc       926 PE      -0.019800
   5555 C1        -10.8870   29.9150   -8.6170 c3       926 PE       0.039600
   5556 C2        -11.4170   31.3650   -8.5770 c3       926 PE       0.039600
   5557 H11       -13.4270   31.0750   -9.5570 hc       927 PE      -0.019800
   5558 H12       -13.4370   30.7750   -7.8370 hc       927 PE      -0.019800
   5559 H21       -13.4570   33.4250   -9.4270 hc       927 PE      -0.019800
   5560 H22       -13.1170   33.3950   -7.6770 hc       927 PE      -0.019800
   5561 C1        -13.0170   31.4250   -8.6070 c3       927 PE       0.039600
   5562 C2        -13.5870   32.8450   -8.5070 c3       927 PE       0.039600
   5563 H11       -15.5570   32.3650   -9.1870 hc       928 PE      -0.019800
   5564 H12       -15.3270   32.2950   -7.4070 hc       928 PE      -0.019800
   5565 H21       -15.3170   34.8850   -8.9570 hc       928 PE      -0.019800
   5566 H22       -15.4970   34.6650   -7.1770 hc       928 PE      -0.019800
   5567 C1        -15.1370   32.8850   -8.3170 c3       928 PE       0.039600
   5568 C2        -15.7170   34.2450   -8.1570 c3       928 PE       0.039600
   5569 H11       -17.5270   33.5250   -9.1370 hc       929 PE      -0.019800
   5570 H12       -17.7070   33.5750   -7.4970 hc       929 PE      -0.019800
   5571 H21       -17.4170   36.3650   -8.8870 hc       929 PE      -0.019800
   5572 H22       -17.7770   35.9950   -7.2970 hc       929 PE      -0.019800
   5573 C1        -17.2370   34.1550   -8.2970 c3       929 PE       0.039600
   5574 C2        -17.9470   35.6050   -8.3070 c3       929 PE       0.039600
   5575 H11       -19.6070   34.9450   -9.5570 hc       930 PE      -0.019800
   5576 H12       -19.9970   34.9550   -7.9470 hc       930 PE      -0.019800
   5577 H21       -21.1170   36.7150   -9.4270 hc       930 PE      -0.019800
   5578 H22       -19.6370   37.6750   -9.3870 hc       930 PE      -0.019800
   5579 C1        -19.4470   35.5650   -8.6670 c3       930 PE       0.039600
   5580 C2        -20.2170   36.9150   -8.8470 c3       930 PE       0.039600
   5581 H11       -25.4970   34.6850    5.0630 hc       931 PE      -0.019800
   5582 H12       -24.9570   35.9350    3.8630 hc       931 PE      -0.019800
   5583 H21       -22.5570   35.2250    3.9230 hc       931 PE      -0.019800
   5584 H22       -23.7570   34.0250    3.2630 hc       931 PE      -0.019800
   5585 C1        -24.6670   35.3050    4.7030 c3       931 PE       0.039600
   5586 C2        -23.4170   34.5750    4.1530 c3       931 PE       0.039600
   5587 H11       -22.4970   33.9450    6.0330 hc       932 PE      -0.019800
   5588 H12       -23.5270   32.7350    5.3330 hc       932 PE      -0.019800
   5589 H21       -21.4970   32.3450    3.4130 hc       932 PE      -0.019800
   5590 H22       -21.1070   32.0650    5.0430 hc       932 PE      -0.019800
   5591 C1        -22.7770   33.4950    5.0730 c3       932 PE       0.039600
   5592 C2        -21.4770   32.8650    4.3830 c3       932 PE       0.039600
   5593 H11       -20.4870   34.6350    3.7330 hc       933 PE      -0.019800
   5594 H12       -20.0970   34.2650    5.3730 hc       933 PE      -0.019800
   5595 H21       -18.8170   32.8250    2.9830 hc       933 PE      -0.019800
   5596 H22       -18.7470   32.4050    4.7530 hc       933 PE      -0.019800
   5597 C1        -20.2470   33.7950    4.3930 c3       933 PE       0.039600
   5598 C2        -18.8870   33.2050    4.0130 c3       933 PE       0.039600
   5599 H11       -17.8870   35.0450    3.5430 hc       934 PE      -0.019800
   5600 H12       -17.7870   34.7150    5.2930 hc       934 PE      -0.019800
   5601 H21       -16.1470   33.2050    3.1330 hc       934 PE      -0.019800
   5602 H22       -16.1170   32.9250    4.7630 hc       934 PE      -0.019800
   5603 C1        -17.7370   34.2550    4.2930 c3       934 PE       0.039600
   5604 C2        -16.2670   33.7650    4.0730 c3       934 PE       0.039600
   5605 H11       -15.2570   35.6350    3.2930 hc       935 PE      -0.019800
   5606 H12       -15.3270   35.5750    4.9930 hc       935 PE      -0.019800
   5607 H21       -13.5670   33.7550    3.2630 hc       935 PE      -0.019800
   5608 H22       -13.6770   33.5150    5.0330 hc       935 PE      -0.019800
   5609 C1        -15.1670   34.9250    4.1230 c3       935 PE       0.039600
   5610 C2        -13.7270   34.2650    4.2230 c3       935 PE       0.039600
   5611 H11       -12.5570   35.8750    3.2830 hc       936 PE      -0.019800
   5612 H12       -12.6570   36.0150    5.0230 hc       936 PE      -0.019800
   5613 H21       -11.1070   33.9450    3.3330 hc       936 PE      -0.019800
   5614 H22       -11.0370   33.9650    5.0530 hc       936 PE      -0.019800
   5615 C1        -12.5470   35.2750    4.2030 c3       936 PE       0.039600
   5616 C2        -11.1670   34.6250    4.1930 c3       936 PE       0.039600
   5617 H11       -10.0970   36.2550    3.2730 hc       937 PE      -0.019800
   5618 H12        -9.9670   36.3450    5.0630 hc       937 PE      -0.019800
   5619 H21        -8.7570   34.2150    3.3430 hc       937 PE      -0.019800
   5620 H22        -8.5770   34.1650    5.1430 hc       937 PE      -0.019800
   5621 C1        -10.0470   35.6750    4.2030 c3       937 PE       0.039600
   5622 C2         -8.7370   34.8050    4.2730 c3       937 PE       0.039600
   5623 H11        -7.8370   36.4850    3.4430 hc       938 PE      -0.019800
   5624 H12        -7.5670   36.2450    5.2830 hc       938 PE      -0.019800
   5625 H21        -6.2270   34.5550    3.0830 hc       938 PE      -0.019800
   5626 H22        -6.0070   34.5450    4.7530 hc       938 PE      -0.019800
   5627 C1         -7.5870   35.8150    4.2730 c3       938 PE       0.039600
   5628 C2         -6.1870   35.2550    3.9330 c3       938 PE       0.039600
   5629 H11        -4.9870   36.8950    3.0630 hc       939 PE      -0.019800
   5630 H12        -5.0770   36.9550    4.7530 hc       939 PE      -0.019800
   5631 H21        -3.5470   34.8050    3.1130 hc       939 PE      -0.019800
   5632 H22        -3.6770   34.7750    4.8030 hc       939 PE      -0.019800
   5633 C1         -4.9770   36.2350    3.9430 c3       939 PE       0.039600
   5634 C2         -3.6070   35.4850    3.9730 c3       939 PE       0.039600
   5635 H11        -2.4370   37.1550    3.3530 hc       940 PE      -0.019800
   5636 H12        -2.2970   36.8450    5.0730 hc       940 PE      -0.019800
   5637 H21        -1.2170   34.8650    3.0430 hc       940 PE      -0.019800
   5638 H22        -0.5370   35.1150    4.6330 hc       940 PE      -0.019800
   5639 C1         -2.3770   36.3550    4.1030 c3       940 PE       0.039600
   5640 C2         -0.9970   35.6450    3.7830 c3       940 PE       0.039600
   5641 H11        -0.4670   37.3050    2.3730 hc       941 PE      -0.019800
   5642 H12         0.3130   37.3450    3.9630 hc       941 PE      -0.019800
   5643 H21         0.7230   35.0350    1.8730 hc       941 PE      -0.019800
   5644 H22         1.6530   35.3850    3.2830 hc       941 PE      -0.019800
   5645 C1         -0.0070   36.6750    3.1530 c3       941 PE       0.039600
   5646 C2          1.1330   35.8750    2.4530 c3       941 PE       0.039600
   5647 H11         1.7130   37.1450    0.8330 hc       942 PE      -0.019800
   5648 H12         2.6830   37.5550    2.2330 hc       942 PE      -0.019800
   5649 H21         3.0430   35.1350    0.4930 hc       942 PE      -0.019800
   5650 H22         3.7330   35.1350    2.1130 hc       942 PE      -0.019800
   5651 C1          2.2530   36.7150    1.6830 c3       942 PE       0.039600
   5652 C2          3.4530   35.7850    1.2830 c3       942 PE       0.039600
   5653 H11         4.4230   37.4050    0.1630 hc       943 PE      -0.019800
   5654 H12         5.3330   36.9750    1.5530 hc       943 PE      -0.019800
   5655 H21         6.3330   36.2750   -0.7770 hc       943 PE      -0.019800
   5656 H22         4.9130   35.3750   -1.0070 hc       943 PE      -0.019800
   5657 C1          4.7530   36.5250    0.7330 c3       943 PE       0.039600
   5658 C2          5.5930   35.6850   -0.2070 c3       943 PE       0.039600
   5659 H11         6.9030   34.6250    1.3530 hc       944 PE      -0.019800
   5660 H12         5.3730   33.8450    0.8730 hc       944 PE      -0.019800
   5661 H21         7.6030   34.2950   -1.1670 hc       944 PE      -0.019800
   5662 H22         6.6230   32.8050   -0.9670 hc       944 PE      -0.019800
   5663 C1          6.2430   34.3950    0.5030 c3       944 PE       0.039600
   5664 C2          7.1830   33.5950   -0.4470 c3       944 PE       0.039600
   5665 H11         8.8530   33.6150    1.0330 hc       945 PE      -0.019800
   5666 H12         7.7930   32.2150    1.0830 hc       945 PE      -0.019800
   5667 H21         9.8930   32.8550   -1.1270 hc       945 PE      -0.019800
   5668 H22         8.6430   31.5750   -1.2470 hc       945 PE      -0.019800
   5669 C1          8.3530   32.8650    0.4130 c3       945 PE       0.039600
   5670 C2          9.3230   32.0950   -0.5670 c3       945 PE       0.039600
   5671 H11        10.8530   31.7050    0.9330 hc       946 PE      -0.019800
   5672 H12         9.6330   30.4350    0.8530 hc       946 PE      -0.019800
   5673 H21        11.6530   31.0750   -1.3870 hc       946 PE      -0.019800
   5674 H22        10.5030   29.7750   -1.4570 hc       946 PE      -0.019800
   5675 C1         10.2430   31.1150    0.2330 c3       946 PE       0.039600
   5676 C2         11.1130   30.3650   -0.7570 c3       946 PE       0.039600
   5677 H11        12.7730   29.8950    0.3930 hc       947 PE      -0.019800
   5678 H12        11.3430   28.6950    0.6030 hc       947 PE      -0.019800
   5679 H21        13.3030   28.8850   -1.7170 hc       947 PE      -0.019800
   5680 H22        11.8830   27.8150   -1.6070 hc       947 PE      -0.019800
   5681 C1         11.9830   29.2850   -0.0670 c3       947 PE       0.039600
   5682 C2         12.7030   28.2650   -1.0370 c3       947 PE       0.039600
   5683 H11        13.9730   27.6750    0.5130 hc       948 PE      -0.019800
   5684 H12        12.8530   26.4050    0.1230 hc       948 PE      -0.019800
   5685 H21        15.4030   27.5150   -1.3070 hc       948 PE      -0.019800
   5686 H22        14.3030   26.3650   -2.1370 hc       948 PE      -0.019800
   5687 C1         13.4830   27.1750   -0.3270 c3       948 PE       0.039600
   5688 C2         14.7030   26.6750   -1.1670 c3       948 PE       0.039600
   5689 H11        15.6330   25.8550    0.5230 hc       949 PE      -0.019800
   5690 H12        14.6930   24.6250   -0.1670 hc       949 PE      -0.019800
   5691 H21        17.3130   25.7850   -1.6370 hc       949 PE      -0.019800
   5692 H22        16.4730   24.1850   -1.8770 hc       949 PE      -0.019800
   5693 C1         15.3630   25.4450   -0.4570 c3       949 PE       0.039600
   5694 C2         16.7030   24.9950   -1.1670 c3       949 PE       0.039600
   5695 H11        18.3530   24.9550    0.2830 hc       950 PE      -0.019800
   5696 H12        16.9230   23.9050    0.6530 hc       950 PE      -0.019800
   5697 H21        18.7530   23.2350   -1.6570 hc       950 PE      -0.019800
   5698 H22        17.3930   22.3850   -1.0670 hc       950 PE      -0.019800
   5699 C1         17.5930   24.2950   -0.1270 c3       950 PE       0.039600
   5700 C2         18.2430   22.9950   -0.7170 c3       950 PE       0.039600
   5701 H11        20.0330   22.9550    0.5430 hc       951 PE      -0.019800
   5702 H12        18.8130   21.9450    1.0830 hc       951 PE      -0.019800
   5703 H21        20.7430   21.3550   -1.1770 hc       951 PE      -0.019800
   5704 H22        19.1430   20.5350   -1.0570 hc       951 PE      -0.019800
   5705 C1         19.2630   22.2850    0.1430 c3       951 PE       0.039600
   5706 C2         19.9530   21.0250   -0.4970 c3       951 PE       0.039600
   5707 H11        21.6930   20.6150    0.6130 hc       952 PE      -0.019800
   5708 H12        20.1730   20.0150    1.3530 hc       952 PE      -0.019800
   5709 H21        21.2830   18.6950   -1.1670 hc       952 PE      -0.019800
   5710 H22        20.0530   18.1550   -0.0570 hc       952 PE      -0.019800
   5711 C1         20.7330   20.1150    0.4130 c3       952 PE       0.039600
   5712 C2         21.0230   18.6550   -0.1070 c3       952 PE       0.039600
   5713 H11        23.0830   18.3750    0.3930 hc       953 PE      -0.019800
   5714 H12        22.0430   18.1050    1.8130 hc       953 PE      -0.019800
   5715 H21        22.4530   16.3950   -0.5670 hc       953 PE      -0.019800
   5716 H22        21.0930   16.1550    0.5930 hc       953 PE      -0.019800
   5717 C1         22.1030   18.0050    0.7230 c3       953 PE       0.039600
   5718 C2         22.1230   16.5150    0.4730 c3       953 PE       0.039600
   5719 H11        24.0830   16.2550    1.4030 hc       954 PE      -0.019800
   5720 H12        22.6030   15.8650    2.3630 hc       954 PE      -0.019800
   5721 H21        24.0430   13.8150    1.5930 hc       954 PE      -0.019800
   5722 H22        23.7630   14.4550   -0.0870 hc       954 PE      -0.019800
   5723 C1         23.0930   15.7950    1.3830 c3       954 PE       0.039600
   5724 C2         23.3530   14.3250    0.9230 c3       954 PE       0.039600
   5725 H11        21.9030   13.2950    1.9730 hc       955 PE      -0.019800
   5726 H12        21.2130   13.8250    0.4330 hc       955 PE      -0.019800
   5727 H21        23.2830   11.6750    0.8730 hc       955 PE      -0.019800
   5728 H22        22.6330   12.1750   -0.7070 hc       955 PE      -0.019800
   5729 C1         22.1130   13.4250    0.9030 c3       955 PE       0.039600
   5730 C2         22.3930   12.0750    0.3630 c3       955 PE       0.039600
   5731 H11        21.2030   10.2550   -0.0870 hc       956 PE      -0.019800
   5732 H12        21.0730   10.9750    1.6030 hc       956 PE      -0.019800
   5733 H21        19.7030   12.4850   -0.5170 hc       956 PE      -0.019800
   5734 H22        19.2830   12.3350    1.1230 hc       956 PE      -0.019800
   5735 C1         21.1030   11.1650    0.5230 c3       956 PE       0.039600
   5736 C2         19.6830   11.7450    0.2930 c3       956 PE       0.039600
   5737 H11        18.8130    9.9150   -0.8270 hc       957 PE      -0.019800
   5738 H12        18.6630    9.8450    0.7930 hc       957 PE      -0.019800
   5739 H21        17.0630   11.9750   -0.7970 hc       957 PE      -0.019800
   5740 H22        17.0330   11.5350    0.9230 hc       957 PE      -0.019800
   5741 C1         18.6230   10.6050    0.0030 c3       957 PE       0.039600
   5742 C2         17.1630   11.1350   -0.0970 c3       957 PE       0.039600
   5743 H11        16.2730    9.6350   -1.3370 hc       958 PE      -0.019800
   5744 H12        16.2730    9.1050    0.3130 hc       958 PE      -0.019800
   5745 H21        14.4030   11.1050   -1.0570 hc       958 PE      -0.019800
   5746 H22        14.3530   11.1550    0.6130 hc       958 PE      -0.019800
   5747 C1         16.0930    9.9950   -0.3170 c3       958 PE       0.039600
   5748 C2         14.6030   10.4550   -0.1970 c3       958 PE       0.039600
   5749 H11        13.5830    8.7450   -1.2370 hc       959 PE      -0.019800
   5750 H12        13.9030    8.5250    0.4530 hc       959 PE      -0.019800
   5751 H21        11.7130   10.4050   -0.8470 hc       959 PE      -0.019800
   5752 H22        11.9530   10.3450    0.7230 hc       959 PE      -0.019800
   5753 C1         13.6230    9.2850   -0.2870 c3       959 PE       0.039600
   5754 C2         12.1530    9.6950   -0.1270 c3       959 PE       0.039600
   5755 H11        11.0630    8.1350   -1.2870 hc       960 PE      -0.019800
   5756 H12        11.6530    7.5850    0.2430 hc       960 PE      -0.019800
   5757 H21         9.9930    9.1550    1.3230 hc       960 PE      -0.019800
   5758 H22         9.4130    9.5450   -0.3070 hc       960 PE      -0.019800
   5759 C1         11.2030    8.4550   -0.2470 c3       960 PE       0.039600
   5760 C2          9.8230    8.7450    0.3230 c3       960 PE       0.039600
   5761 H11       -10.8370    0.9750    9.5530 hc       961 PE      -0.019800
   5762 H12       -11.9270    2.3050    9.5530 hc       961 PE      -0.019800
   5763 H21       -13.0270   -0.2350    9.9730 hc       961 PE      -0.019800
   5764 H22       -12.7370   -0.3450    8.2130 hc       961 PE      -0.019800
   5765 C1        -11.7470    1.3350    9.0630 c3       961 PE       0.039600
   5766 C2        -12.9370    0.3450    9.0530 c3       961 PE       0.039600
   5767 H11       -14.4870    1.7450    9.6330 hc       962 PE      -0.019800
   5768 H12       -14.2570    1.3750    7.8630 hc       962 PE      -0.019800
   5769 H21       -15.4470   -0.5050    9.9030 hc       962 PE      -0.019800
   5770 H22       -15.2570   -0.7850    8.1930 hc       962 PE      -0.019800
   5771 C1        -14.3270    0.9650    8.8830 c3       962 PE       0.039600
   5772 C2        -15.5370   -0.0150    8.9230 c3       962 PE       0.039600
   5773 H11       -17.2670    1.2950    9.5130 hc       963 PE      -0.019800
   5774 H12       -16.9370    1.2950    7.8030 hc       963 PE      -0.019800
   5775 H21       -17.9470   -1.0650    9.4430 hc       963 PE      -0.019800
   5776 H22       -17.7570   -1.0050    7.6030 hc       963 PE      -0.019800
   5777 C1        -16.9270    0.6550    8.6930 c3       963 PE       0.039600
   5778 C2        -17.9970   -0.4650    8.5230 c3       963 PE       0.039600
   5779 H11       -19.4870    0.9650    9.1630 hc       964 PE      -0.019800
   5780 H12       -19.5270    0.5850    7.3930 hc       964 PE      -0.019800
   5781 H21       -20.3470   -1.4950    9.5930 hc       964 PE      -0.019800
   5782 H22       -20.6370   -1.4850    7.8930 hc       964 PE      -0.019800
   5783 C1        -19.3670    0.1850    8.4030 c3       964 PE       0.039600
   5784 C2        -20.4770   -0.8050    8.7430 c3       964 PE       0.039600
   5785 H11       -21.7570    0.5150    9.8230 hc       965 PE      -0.019800
   5786 H12       -22.0170    0.8250    8.1830 hc       965 PE      -0.019800
   5787 H21       -23.0670   -1.6050    9.5530 hc       965 PE      -0.019800
   5788 H22       -22.9570   -1.5350    7.7930 hc       965 PE      -0.019800
   5789 C1        -21.8370   -0.0150    8.8730 c3       965 PE       0.039600
   5790 C2        -23.0970   -0.9250    8.6930 c3       965 PE       0.039600
   5791 H11       -24.3870    0.4450    9.5530 hc       966 PE      -0.019800
   5792 H12       -24.5670    0.3550    7.8030 hc       966 PE      -0.019800
   5793 H21       -25.3270   -2.0350    9.5730 hc       966 PE      -0.019800
   5794 H22       -25.5170   -1.8950    7.8430 hc       966 PE      -0.019800
   5795 C1        -24.4370   -0.2550    8.7130 c3       966 PE       0.039600
   5796 C2        -25.5970   -1.3250    8.7730 c3       966 PE       0.039600
   5797 H11       -26.8970   -0.1850   10.0130 hc       967 PE      -0.019800
   5798 H12       -27.0270    0.2350    8.3630 hc       967 PE      -0.019800
   5799 H21       -28.2170   -2.0650   10.0030 hc       967 PE      -0.019800
   5800 H22       -28.0970   -2.3350    8.2230 hc       967 PE      -0.019800
   5801 C1        -26.9370   -0.6450    9.0130 c3       967 PE       0.039600
   5802 C2        -28.1570   -1.5850    9.0230 c3       967 PE       0.039600
   5803 H11       -29.5470    0.1550    9.3130 hc       968 PE      -0.019800
   5804 H12       -29.4970   -0.5150    7.7030 hc       968 PE      -0.019800
   5805 H21       -30.7170   -1.8350   10.1530 hc       968 PE      -0.019800
   5806 H22       -30.6570   -2.4450    8.4330 hc       968 PE      -0.019800
   5807 C1        -29.4670   -0.7850    8.7630 c3       968 PE       0.039600
   5808 C2        -30.7870   -1.5750    9.0830 c3       968 PE       0.039600
   5809 H11       -32.1270    0.0950    9.4430 hc       969 PE      -0.019800
   5810 H12       -32.2970   -0.5650    7.8130 hc       969 PE      -0.019800
   5811 H21       -33.2670   -2.0550   10.4130 hc       969 PE      -0.019800
   5812 H22       -33.2470   -2.7350    8.8130 hc       969 PE      -0.019800
   5813 C1        -32.1170   -0.8350    8.8630 c3       969 PE       0.039600
   5814 C2        -33.2970   -1.7750    9.3530 c3       969 PE       0.039600
   5815 H11       -34.7070   -0.3750    9.7230 hc       970 PE      -0.019800
   5816 H12       -34.6270   -0.8350    7.9830 hc       970 PE      -0.019800
   5817 H21       -36.0670   -2.3250   10.3230 hc       970 PE      -0.019800
   5818 H22       -35.3770   -3.2050    8.9630 hc       970 PE      -0.019800
   5819 C1        -34.6270   -1.2150    9.0130 c3       970 PE       0.039600
   5820 C2        -35.7670   -2.2150    9.2730 c3       970 PE       0.039600
   5821 H11       -37.3970   -0.9850    8.5430 hc       971 PE      -0.019800
   5822 H12       -36.7970   -2.2750    7.4230 hc       971 PE      -0.019800
   5823 H21       -39.0970   -2.6250    8.1930 hc       971 PE      -0.019800
   5824 H22       -38.5870   -2.7850    9.8130 hc       971 PE      -0.019800
   5825 C1        -37.0370   -2.0250    8.4630 c3       971 PE       0.039600
   5826 C2        -38.2270   -2.9350    8.7830 c3       971 PE       0.039600
   5827 H11       -37.3270   -4.4850    7.6130 hc       972 PE      -0.019800
   5828 H12       -37.3470   -4.9250    9.3030 hc       972 PE      -0.019800
   5829 H21       -39.6170   -5.0750    7.3830 hc       972 PE      -0.019800
   5830 H22       -39.9770   -4.8250    9.0430 hc       972 PE      -0.019800
   5831 C1        -37.9470   -4.4550    8.5130 c3       972 PE       0.039600
   5832 C2        -39.2170   -5.2750    8.3830 c3       972 PE       0.039600
   5833 H11       -38.6070   -7.2150    7.5130 hc       973 PE      -0.019800
   5834 H12       -38.2270   -7.0050    9.1830 hc       973 PE      -0.019800
   5835 H21       -41.1470   -7.1650    8.1530 hc       973 PE      -0.019800
   5836 H22       -40.5570   -6.7950    9.7330 hc       973 PE      -0.019800
   5837 C1        -39.0270   -6.8450    8.4530 c3       973 PE       0.039600
   5838 C2        -40.3670   -7.4350    8.8730 c3       973 PE       0.039600
   5839 H11        40.1330   -9.4750    8.2830 hc       974 PE      -0.019800
   5840 H12        40.2730   -9.1750   10.0430 hc       974 PE      -0.019800
   5841 H21        37.5530   -9.0350    8.6430 hc       974 PE      -0.019800
   5842 H22        37.8330   -9.0650   10.4130 hc       974 PE      -0.019800
   5843 C1         39.6530   -9.0150    9.1530 c3       974 PE       0.039600
   5844 C2         38.1630   -9.4650    9.4430 c3       974 PE       0.039600
   5845 H11        38.9830  -11.4650    9.3330 hc       975 PE      -0.019800
   5846 H12        37.4830  -11.4650   10.3430 hc       975 PE      -0.019800
   5847 H21        37.6230  -10.9950    7.3630 hc       975 PE      -0.019800
   5848 H22        36.1130  -11.2150    8.3330 hc       975 PE      -0.019800
   5849 C1         37.9830  -11.0450    9.4530 c3       975 PE       0.039600
   5850 C2         37.1430  -11.5450    8.1830 c3       975 PE       0.039600
   5851 H11        38.3230  -13.4050    8.1830 hc       976 PE      -0.019800
   5852 H12        36.7930  -13.6850    8.7430 hc       976 PE      -0.019800
   5853 H21        37.4830  -13.1050    5.8230 hc       976 PE      -0.019800
   5854 H22        35.8030  -13.1650    6.2830 hc       976 PE      -0.019800
   5855 C1         37.2930  -13.0850    7.9730 c3       976 PE       0.039600
   5856 C2         36.7930  -13.5750    6.5330 c3       976 PE       0.039600
   5857 H11        37.7630  -15.5050    6.6130 hc       977 PE      -0.019800
   5858 H12        36.1630  -15.5250    7.2230 hc       977 PE      -0.019800
   5859 H21        36.6230  -14.9450    4.2630 hc       977 PE      -0.019800
   5860 H22        35.1730  -15.6850    4.9630 hc       977 PE      -0.019800
   5861 C1         36.7630  -15.0950    6.4130 c3       977 PE       0.039600
   5862 C2         36.2630  -15.6250    5.0430 c3       977 PE       0.039600
   5863 H11        37.8030  -17.2550    5.0130 hc       978 PE      -0.019800
   5864 H12        36.1130  -17.7150    5.2530 hc       978 PE      -0.019800
   5865 H21        37.3430  -16.9150    2.5730 hc       978 PE      -0.019800
   5866 H22        35.6330  -17.2750    2.8630 hc       978 PE      -0.019800
   5867 C1         36.7830  -17.0550    4.6830 c3       978 PE       0.039600
   5868 C2         36.6530  -17.4750    3.2130 c3       978 PE       0.039600
   5869 H11        37.4830  -19.3450    3.7930 hc       979 PE      -0.019800
   5870 H12        35.8330  -19.5850    3.3630 hc       979 PE      -0.019800
   5871 H21        37.9730  -18.8750    1.2830 hc       979 PE      -0.019800
   5872 H22        36.3330  -19.5850    0.9930 hc       979 PE      -0.019800
   5873 C1         36.7330  -19.0350    3.0530 c3       979 PE       0.039600
   5874 C2         37.2030  -19.5650    1.6630 c3       979 PE       0.039600
   5875 H11        38.4630  -21.1450    2.4730 hc       980 PE      -0.019800
   5876 H12        36.8330  -21.6850    2.2830 hc       980 PE      -0.019800
   5877 H21        37.2230  -21.4350   -0.2670 hc       980 PE      -0.019800
   5878 H22        37.9930  -22.8450    0.4930 hc       980 PE      -0.019800
   5879 C1         37.6130  -21.1050    1.7830 c3       980 PE       0.039600
   5880 C2         38.0230  -21.7550    0.4130 c3       980 PE       0.039600
   5881 H11       -40.7270  -20.2150   -0.1070 hc       981 PE      -0.019800
   5882 H12       -39.8570  -21.6350    0.5930 hc       981 PE      -0.019800
   5883 H21       -41.0970  -21.3250   -2.2070 hc       981 PE      -0.019800
   5884 H22       -40.6670  -22.8750   -1.5570 hc       981 PE      -0.019800
   5885 C1        -40.6370  -21.3150   -0.0970 c3       981 PE       0.039600
   5886 C2        -40.3970  -21.8150   -1.5070 c3       981 PE       0.039600
   5887 H11       -38.7070  -20.5250   -1.6870 hc       982 PE      -0.019800
   5888 H12       -38.1570  -22.1350   -1.4270 hc       982 PE      -0.019800
   5889 H21       -39.4270  -21.3150   -4.0070 hc       982 PE      -0.019800
   5890 H22       -38.8370  -22.8350   -3.7270 hc       982 PE      -0.019800
   5891 C1        -38.9270  -21.5650   -1.9670 c3       982 PE       0.039600
   5892 C2        -38.6070  -21.8050   -3.4770 c3       982 PE       0.039600
   5893 H11       -36.4270  -21.6550   -3.1670 hc       983 PE      -0.019800
   5894 H12       -36.9470  -21.7950   -4.8670 hc       983 PE      -0.019800
   5895 H21       -37.4270  -19.3750   -2.9770 hc       983 PE      -0.019800
   5896 H22       -37.6970  -19.4350   -4.7270 hc       983 PE      -0.019800
   5897 C1        -37.1870  -21.3350   -3.8970 c3       983 PE       0.039600
   5898 C2        -37.0470  -19.7850   -3.9170 c3       983 PE       0.039600
   5899 H11       -34.9670  -19.7250   -3.3070 hc       984 PE      -0.019800
   5900 H12       -35.1070  -19.6450   -5.0370 hc       984 PE      -0.019800
   5901 H21       -36.2270  -17.1150   -4.4870 hc       984 PE      -0.019800
   5902 H22       -34.4970  -17.3950   -4.4570 hc       984 PE      -0.019800
   5903 C1        -35.5970  -19.3050   -4.1070 c3       984 PE       0.039600
   5904 C2        -35.4470  -17.7050   -3.9970 c3       984 PE       0.039600
   5905 H11       -36.1570  -17.9250   -1.9270 hc       985 PE      -0.019800
   5906 H12       -34.4170  -17.5550   -2.1170 hc       985 PE      -0.019800
   5907 H21       -36.4570  -15.5350   -3.0070 hc       985 PE      -0.019800
   5908 H22       -34.8170  -15.1850   -2.6370 hc       985 PE      -0.019800
   5909 C1        -35.4270  -17.3250   -2.4770 c3       985 PE       0.039600
   5910 C2        -35.6670  -15.8050   -2.3070 c3       985 PE       0.039600
   5911 H11       -36.7070  -14.4950   -0.9870 hc       986 PE      -0.019800
   5912 H12       -36.7370  -16.1350   -0.3070 hc       986 PE      -0.019800
   5913 H21       -34.1270  -14.5150   -0.6070 hc       986 PE      -0.019800
   5914 H22       -34.3470  -16.1150    0.0130 hc       986 PE      -0.019800
   5915 C1        -36.1470  -15.4350   -0.9070 c3       986 PE       0.039600
   5916 C2        -34.8370  -15.1350   -0.0570 c3       986 PE       0.039600
   5917 H11       -35.3870  -13.7350    1.3830 hc       987 PE      -0.019800
   5918 H12       -35.8370  -15.3950    1.7630 hc       987 PE      -0.019800
   5919 H21       -33.8270  -14.1250    2.9430 hc       987 PE      -0.019800
   5920 H22       -32.9770  -14.4750    1.4730 hc       987 PE      -0.019800
   5921 C1        -35.0070  -14.7650    1.3930 c3       987 PE       0.039600
   5922 C2        -33.7470  -14.8850    2.1530 c3       987 PE       0.039600
   5923 H11       -34.4070  -16.6850    3.1630 hc       988 PE      -0.019800
   5924 H12       -33.2670  -16.9850    1.8230 hc       988 PE      -0.019800
   5925 H21       -32.5470  -15.6550    4.6330 hc       988 PE      -0.019800
   5926 H22       -31.3870  -15.9950    3.4230 hc       988 PE      -0.019800
   5927 C1        -33.4770  -16.3450    2.6830 c3       988 PE       0.039600
   5928 C2        -32.3770  -16.3150    3.7630 c3       988 PE       0.039600
   5929 H11       -31.6170  -17.6050    5.3730 hc       989 PE      -0.019800
   5930 H12       -33.1870  -18.1250    4.6830 hc       989 PE      -0.019800
   5931 H21       -30.4070  -18.3450    3.2930 hc       989 PE      -0.019800
   5932 H22       -31.9070  -18.6750    2.4330 hc       989 PE      -0.019800
   5933 C1        -32.1870  -17.7150    4.4430 c3       989 PE       0.039600
   5934 C2        -31.4370  -18.7150    3.4230 c3       989 PE       0.039600
   5935 H11       -31.0170  -20.1250    4.9930 hc       990 PE      -0.019800
   5936 H12       -32.1770  -20.7350    3.8530 hc       990 PE      -0.019800
   5937 H21       -30.1770  -20.9550    2.2230 hc       990 PE      -0.019800
   5938 H22       -29.0770  -20.3150    3.2530 hc       990 PE      -0.019800
   5939 C1        -31.2270  -20.1850    3.9230 c3       990 PE       0.039600
   5940 C2        -29.9770  -20.9450    3.2930 c3       990 PE       0.039600
   5941 H11       -26.8270   25.0950    2.6730 hc       991 PE      -0.019800
   5942 H12       -26.5370   25.5450    4.4930 hc       991 PE      -0.019800
   5943 H21       -28.5670   26.6950    2.6630 hc       991 PE      -0.019800
   5944 H22       -28.0570   27.1350    4.3730 hc       991 PE      -0.019800
   5945 C1        -26.8570   25.8350    3.4830 c3       991 PE       0.039600
   5946 C2        -28.2170   26.3350    3.6430 c3       991 PE       0.039600
   5947 H11       -29.1370   24.3350    3.5730 hc       992 PE      -0.019800
   5948 H12       -28.8770   24.9850    5.1530 hc       992 PE      -0.019800
   5949 H21       -31.0570   25.7550    3.1130 hc       992 PE      -0.019800
   5950 H22       -30.9170   26.5750    4.6530 hc       992 PE      -0.019800
   5951 C1        -29.2470   25.2550    4.1630 c3       992 PE       0.039600
   5952 C2        -30.7770   25.6050    4.1630 c3       992 PE       0.039600
   5953 H11       -31.1870   24.1850    5.6430 hc       993 PE      -0.019800
   5954 H12       -32.7070   24.8450    4.7930 hc       993 PE      -0.019800
   5955 H21       -30.6770   22.8450    3.5230 hc       993 PE      -0.019800
   5956 H22       -31.9770   23.5650    2.7630 hc       993 PE      -0.019800
   5957 C1        -31.6770   24.4750    4.7130 c3       993 PE       0.039600
   5958 C2        -31.6670   23.2650    3.7730 c3       993 PE       0.039600
   5959 H11       -32.3670   21.9250    5.2530 hc       994 PE      -0.019800
   5960 H12       -33.6270   22.7250    4.2830 hc       994 PE      -0.019800
   5961 H21       -31.9170   20.5450    3.0730 hc       994 PE      -0.019800
   5962 H22       -33.3670   21.4050    2.4230 hc       994 PE      -0.019800
   5963 C1        -32.6470   22.2250    4.2330 c3       994 PE       0.039600
   5964 C2        -32.8670   21.0350    3.3330 c3       994 PE       0.039600
   5965 H11       -33.7070   19.0750    3.4830 hc       995 PE      -0.019800
   5966 H12       -33.2570   19.6850    4.9830 hc       995 PE      -0.019800
   5967 H21       -35.5170   21.2550    3.7630 hc       995 PE      -0.019800
   5968 H22       -35.3170   20.6950    5.4530 hc       995 PE      -0.019800
   5969 C1        -33.7670   20.0050    4.0530 c3       995 PE       0.039600
   5970 C2        -35.2370   20.4050    4.4030 c3       995 PE       0.039600
   5971 H11       -36.1870   19.0650    2.9330 hc       996 PE      -0.019800
   5972 H12       -35.8770   18.2750    4.4930 hc       996 PE      -0.019800
   5973 H21       -37.7770   20.7150    4.1630 hc       996 PE      -0.019800
   5974 H22       -37.7370   19.5950    5.4530 hc       996 PE      -0.019800
   5975 C1        -36.1770   19.2150    4.0230 c3       996 PE       0.039600
   5976 C2        -37.7070   19.6350    4.3530 c3       996 PE       0.039600
   5977 H11       -38.6670   19.1550    2.5630 hc       997 PE      -0.019800
   5978 H12       -38.5170   17.7850    3.6930 hc       997 PE      -0.019800
   5979 H21       -40.1970   18.6050    5.1730 hc       997 PE      -0.019800
   5980 H22       -40.8270   18.4250    3.6530 hc       997 PE      -0.019800
   5981 C1        -38.7570   18.8550    3.6130 c3       997 PE       0.039600
   5982 C2        -40.1670   19.1150    4.2030 c3       997 PE       0.039600
   5983 H11        39.6930   21.2450    4.8430 hc       998 PE      -0.019800
   5984 H12        39.6830   20.8750    3.0730 hc       998 PE      -0.019800
   5985 H21        37.6730   20.4750    5.2430 hc       998 PE      -0.019800
   5986 H22        37.2430   20.1450    3.5930 hc       998 PE      -0.019800
   5987 C1         39.3030   20.5850    4.0630 c3       998 PE       0.039600
   5988 C2         37.8130   20.8450    4.2130 c3       998 PE       0.039600
   5989 H11        38.1130   22.9650    4.5430 hc       999 PE      -0.019800
   5990 H12        37.3230   22.6250    3.0030 hc       999 PE      -0.019800
   5991 H21        36.0830   22.4050    5.7130 hc       999 PE      -0.019800
   5992 H22        35.2730   21.9650    4.1730 hc       999 PE      -0.019800
   5993 C1         37.3430   22.3450    4.0630 c3       999 PE       0.039600
   5994 C2         35.9630   22.6750    4.6630 c3       999 PE       0.039600
   5995 H11        36.1530   24.8150    5.0130 hc      1000 PE      -0.019800
   5996 H12        35.7630   24.3250    3.3230 hc      1000 PE      -0.019800
   5997 H21        33.7930   24.4950    5.6330 hc      1000 PE      -0.019800
   5998 H22        33.4230   23.8150    4.1530 hc      1000 PE      -0.019800
   5999 C1         35.5530   24.1450    4.3830 c3      1000 PE       0.039600
   6000 C2         34.1030   24.5550    4.5830 c3      1000 PE       0.039600
   6001 H11        34.6430   26.5950    4.1730 hc      1001 PE      -0.019800
   6002 H12        33.6930   25.7850    2.8430 hc      1001 PE      -0.019800
   6003 H21        32.4630   26.5150    5.5630 hc      1001 PE      -0.019800
   6004 H22        31.6430   25.7450    4.2030 hc      1001 PE      -0.019800
   6005 C1         33.8130   25.9150    3.9230 c3      1001 PE       0.039600
   6006 C2         32.4630   26.4250    4.4630 c3      1001 PE       0.039600
   6007 H11        32.6930   28.6050    4.7530 hc      1002 PE      -0.019800
   6008 H12        32.4530   28.1350    3.0730 hc      1002 PE      -0.019800
   6009 H21        30.3830   28.1650    5.3130 hc      1002 PE      -0.019800
   6010 H22        30.0530   27.8050    3.5630 hc      1002 PE      -0.019800
   6011 C1         32.1230   27.9450    4.0930 c3      1002 PE       0.039600
   6012 C2         30.6130   28.4150    4.2730 c3      1002 PE       0.039600
   6013 H11        31.0730   30.4650    4.7630 hc      1003 PE      -0.019800
   6014 H12        30.7630   30.1150    3.0230 hc      1003 PE      -0.019800
   6015 H21        28.5830   30.2450    5.2630 hc      1003 PE      -0.019800
   6016 H22        28.2930   29.7750    3.5330 hc      1003 PE      -0.019800
   6017 C1         30.4330   29.9250    4.0530 c3      1003 PE       0.039600
   6018 C2         28.9230   30.3450    4.2230 c3      1003 PE       0.039600
   6019 H11        29.2530   32.0550    2.8330 hc      1004 PE      -0.019800
   6020 H12        27.6230   31.9750    3.5530 hc      1004 PE      -0.019800
   6021 H21        30.4030   32.5350    4.9030 hc      1004 PE      -0.019800
   6022 H22        28.9430   32.8150    5.8530 hc      1004 PE      -0.019800
   6023 C1         28.6930   31.8450    3.7530 c3      1004 PE       0.039600
   6024 C2         29.3530   32.8550    4.8430 c3      1004 PE       0.039600
   6025 H11        29.1430   34.3750    3.3430 hc      1005 PE      -0.019800
   6026 H12        28.3630   34.7050    4.8730 hc      1005 PE      -0.019800
   6027 H21        31.4930   34.8750    4.4030 hc      1005 PE      -0.019800
   6028 H22        30.7030   35.2150    5.8930 hc      1005 PE      -0.019800
   6029 C1         29.3030   34.3350    4.4330 c3      1005 PE       0.039600
   6030 C2         30.5130   35.1450    4.8130 c3      1005 PE       0.039600
   6031 H11        30.3130   36.4950    3.1730 hc      1006 PE      -0.019800
   6032 H12        29.6430   37.2050    4.6930 hc      1006 PE      -0.019800
   6033 H21        32.5230   37.0050    4.0430 hc      1006 PE      -0.019800
   6034 H22        31.9230   37.4450    5.6130 hc      1006 PE      -0.019800
   6035 C1         30.4430   36.5950    4.2630 c3      1006 PE       0.039600
   6036 C2         31.6730   37.4850    4.5430 c3      1006 PE       0.039600
   6037 H11        32.0030   38.8750    3.0130 hc      1007 PE      -0.019800
   6038 H12        30.6030   39.2850    4.0230 hc      1007 PE      -0.019800
   6039 H21        33.5230   39.6450    4.9230 hc      1007 PE      -0.019800
   6040 H22        32.1330   40.1450    5.8630 hc      1007 PE      -0.019800
   6041 C1         31.6330   38.9050    4.0430 c3      1007 PE       0.039600
   6042 C2         32.4730   39.9350    4.8330 c3      1007 PE       0.039600
   6043 H11        32.8930  -38.7950    3.1430 hc      1008 PE      -0.019800
   6044 H12        31.2130  -38.6750    3.9130 hc      1008 PE      -0.019800
   6045 H21        33.7230  -37.6250    5.2930 hc      1008 PE      -0.019800
   6046 H22        32.0930  -37.2150    5.6230 hc      1008 PE      -0.019800
   6047 C1         32.3030  -38.7150    4.0630 c3      1008 PE       0.039600
   6048 C2         32.7530  -37.4750    4.7930 c3      1008 PE       0.039600
   6049 H11        33.4030  -36.7150    2.8430 hc      1009 PE      -0.019800
   6050 H12        31.8030  -36.1550    3.3130 hc      1009 PE      -0.019800
   6051 H21        34.6030  -35.3850    4.4830 hc      1009 PE      -0.019800
   6052 H22        33.0830  -34.8850    5.2430 hc      1009 PE      -0.019800
   6053 C1         32.7930  -36.4150    3.7030 c3      1009 PE       0.039600
   6054 C2         33.5430  -35.1850    4.2930 c3      1009 PE       0.039600
   6055 H11        34.0030  -34.3250    2.1830 hc      1010 PE      -0.019800
   6056 H12        32.5930  -33.6550    2.8530 hc      1010 PE      -0.019800
   6057 H21        33.7230  -32.3250    4.6730 hc      1010 PE      -0.019800
   6058 H22        34.0830  -31.7950    3.0430 hc      1010 PE      -0.019800
   6059 C1         33.6030  -33.9850    3.1430 c3      1010 PE       0.039600
   6060 C2         34.1930  -32.6350    3.7330 c3      1010 PE       0.039600
   6061 H11        35.8830  -31.7150    4.8130 hc      1011 PE      -0.019800
   6062 H12        36.0730  -33.4350    4.6930 hc      1011 PE      -0.019800
   6063 H21        36.7430  -31.6850    2.5230 hc      1011 PE      -0.019800
   6064 H22        36.4830  -33.4050    2.2530 hc      1011 PE      -0.019800
   6065 C1         35.6930  -32.5650    4.1430 c3      1011 PE       0.039600
   6066 C2         36.6930  -32.6650    3.0330 c3      1011 PE       0.039600
   6067 H11        38.8230  -32.6050    2.7530 hc      1012 PE      -0.019800
   6068 H12        38.3330  -32.2250    4.3630 hc      1012 PE      -0.019800
   6069 H21        37.9930  -34.9050    2.9930 hc      1012 PE      -0.019800
   6070 H22        37.8630  -34.7850    4.7430 hc      1012 PE      -0.019800
   6071 C1         38.1230  -32.9250    3.5330 c3      1012 PE       0.039600
   6072 C2         38.4230  -34.4150    3.8730 c3      1012 PE       0.039600
   6073 H11       -39.3670  -34.1950    3.4730 hc      1013 PE      -0.019800
   6074 H12       -39.8270  -34.2750    5.1430 hc      1013 PE      -0.019800
   6075 H21       -40.0270  -36.6950    3.1330 hc      1013 PE      -0.019800
   6076 H22       -40.3670  -36.7650    4.8530 hc      1013 PE      -0.019800
   6077 C1        -40.0570  -34.7150    4.1630 c3      1013 PE       0.039600
   6078 C2        -39.7870  -36.2250    4.0930 c3      1013 PE       0.039600
   6079 H11       -37.6070  -36.2150    3.6830 hc      1014 PE      -0.019800
   6080 H12       -37.9570  -36.1950    5.3930 hc      1014 PE      -0.019800
   6081 H21       -38.4870  -38.6050    3.7530 hc      1014 PE      -0.019800
   6082 H22       -38.6770  -38.5050    5.4730 hc      1014 PE      -0.019800
   6083 C1        -38.2770  -36.6450    4.4430 c3      1014 PE       0.039600
   6084 C2        -38.0470  -38.1450    4.6530 c3      1014 PE       0.039600
   6085 H11       -35.9970  -38.1950    3.9830 hc      1015 PE      -0.019800
   6086 H12       -36.3270  -38.2750    5.8030 hc      1015 PE      -0.019800
   6087 H21       -36.9870  -40.4350    3.6930 hc      1015 PE      -0.019800
   6088 H22       -37.0470  -40.5650    5.5030 hc      1015 PE      -0.019800
   6089 C1        -36.6070  -38.6050    4.7930 c3      1015 PE       0.039600
   6090 C2        -36.5270  -40.1250    4.6330 c3      1015 PE       0.039600
   6091 H11       -34.6170   39.7550    3.6330 hc      1016 PE      -0.019800
   6092 H12       -34.2970   39.9650    5.3230 hc      1016 PE      -0.019800
   6093 H21       -35.1870   37.3350    3.8530 hc      1016 PE      -0.019800
   6094 H22       -35.1570   37.5450    5.6130 hc      1016 PE      -0.019800
   6095 C1        -34.9570   39.4350    4.6330 c3      1016 PE       0.039600
   6096 C2        -34.6870   37.8750    4.6730 c3      1016 PE       0.039600
   6097 H11       -32.7570   37.8950    3.7930 hc      1017 PE      -0.019800
   6098 H12       -32.7270   38.0950    5.5530 hc      1017 PE      -0.019800
   6099 H21       -33.4870   35.3250    4.4730 hc      1017 PE      -0.019800
   6100 H22       -32.9670   35.7650    6.0830 hc      1017 PE      -0.019800
   6101 C1        -33.1970   37.5350    4.7330 c3      1017 PE       0.039600
   6102 C2        -32.8470   36.0250    5.0230 c3      1017 PE       0.039600
   6103 H11       -31.0870   36.3450    3.8130 hc      1018 PE      -0.019800
   6104 H12       -30.7570   36.2350    5.5730 hc      1018 PE      -0.019800
   6105 H21       -31.6770   33.8750    3.8030 hc      1018 PE      -0.019800
   6106 H22       -31.4570   33.8050    5.5330 hc      1018 PE      -0.019800
   6107 C1        -31.3470   35.8250    4.7430 c3      1018 PE       0.039600
   6108 C2        -31.0770   34.2850    4.6230 c3      1018 PE       0.039600
   6109 H11       -29.1270   34.5050    3.4930 hc      1019 PE      -0.019800
   6110 H12       -28.9170   34.5050    5.1930 hc      1019 PE      -0.019800
   6111 H21       -29.5770   32.1550    3.4130 hc      1019 PE      -0.019800
   6112 H22       -29.9670   32.0550    5.2130 hc      1019 PE      -0.019800
   6113 C1        -29.5270   34.0450    4.4030 c3      1019 PE       0.039600
   6114 C2        -29.3770   32.5350    4.4230 c3      1019 PE       0.039600
   6115 H11       -27.5370   32.7150    5.5130 hc      1020 PE      -0.019800
   6116 H12       -27.8470   31.1350    4.7630 hc      1020 PE      -0.019800
   6117 H21       -26.8470   33.6150    3.4530 hc      1020 PE      -0.019800
   6118 H22       -26.1370   32.0950    3.4930 hc      1020 PE      -0.019800
   6119 C1        -27.9170   32.2150    4.6130 c3      1020 PE       0.039600
   6120 C2        -27.1170   32.5650    3.3230 c3      1020 PE       0.039600
   6121 H11        -2.9270   -1.2250    1.0230 hc      1021 PE      -0.019800
   6122 H12        -2.5870    0.4850    0.5330 hc      1021 PE      -0.019800
   6123 H21        -2.8370   -0.0550   -1.7270 hc      1021 PE      -0.019800
   6124 H22        -3.2570   -1.7450   -1.4270 hc      1021 PE      -0.019800
   6125 C1         -3.1370   -0.4350    0.2830 c3      1021 PE       0.039600
   6126 C2         -2.6570   -0.9050   -1.0570 c3      1021 PE       0.039600
   6127 H11        -0.6670   -0.3750   -0.5170 hc      1022 PE      -0.019800
   6128 H12        -1.0270   -2.0650   -0.2970 hc      1022 PE      -0.019800
   6129 H21        -0.8570   -0.7750   -3.0570 hc      1022 PE      -0.019800
   6130 H22        -1.2670   -2.4650   -2.6770 hc      1022 PE      -0.019800
   6131 C1         -1.1570   -1.2350   -0.9970 c3      1022 PE       0.039600
   6132 C2         -0.6570   -1.6050   -2.3670 c3      1022 PE       0.039600
   6133 H11         1.5830   -1.3750   -2.5270 hc      1023 PE      -0.019800
   6134 H12         1.0830   -2.3250   -1.3370 hc      1023 PE      -0.019800
   6135 H21         0.8230   -2.8850   -4.4870 hc      1023 PE      -0.019800
   6136 H22         0.3930   -4.0650   -3.3470 hc      1023 PE      -0.019800
   6137 C1          0.8330   -2.1650   -2.3970 c3      1023 PE       0.039600
   6138 C2          1.0930   -3.2250   -3.4770 c3      1023 PE       0.039600
   6139 H11         2.7130   -4.1650   -2.4670 hc      1024 PE      -0.019800
   6140 H12         2.5730   -4.6750   -4.2070 hc      1024 PE      -0.019800
   6141 H21         3.6130   -1.9750   -3.3670 hc      1024 PE      -0.019800
   6142 H22         3.1630   -2.5750   -4.9670 hc      1024 PE      -0.019800
   6143 C1          2.4830   -3.8450   -3.4870 c3      1024 PE       0.039600
   6144 C2          3.5430   -2.8750   -3.9870 c3      1024 PE       0.039600
   6145 H11         5.0430   -3.9950   -2.9770 hc      1025 PE      -0.019800
   6146 H12         5.0430   -4.3550   -4.7570 hc      1025 PE      -0.019800
   6147 H21         5.9330   -1.7650   -3.3670 hc      1025 PE      -0.019800
   6148 H22         5.9130   -2.1350   -5.1970 hc      1025 PE      -0.019800
   6149 C1          4.9130   -3.5950   -3.9870 c3      1025 PE       0.039600
   6150 C2          6.0130   -2.4950   -4.1670 c3      1025 PE       0.039600
   6151 H11         7.3830   -3.6550   -3.1070 hc      1026 PE      -0.019800
   6152 H12         7.3330   -4.1050   -4.7470 hc      1026 PE      -0.019800
   6153 H21         8.5830   -1.4150   -3.6370 hc      1026 PE      -0.019800
   6154 H22         8.3430   -1.8550   -5.4470 hc      1026 PE      -0.019800
   6155 C1          7.3330   -3.2150   -4.1070 c3      1026 PE       0.039600
   6156 C2          8.5030   -2.1850   -4.4070 c3      1026 PE       0.039600
   6157 H11        10.0130   -3.5050   -3.5770 hc      1027 PE      -0.019800
   6158 H12         9.7530   -3.5950   -5.2570 hc      1027 PE      -0.019800
   6159 H21        10.8430   -1.1050   -3.8070 hc      1027 PE      -0.019800
   6160 H22        10.7930   -1.2450   -5.4970 hc      1027 PE      -0.019800
   6161 C1          9.8530   -2.8550   -4.4470 c3      1027 PE       0.039600
   6162 C2         10.9330   -1.8550   -4.5970 c3      1027 PE       0.039600
   6163 H11        12.7330   -2.9550   -3.8370 hc      1028 PE      -0.019800
   6164 H12        12.5530   -2.9850   -5.6070 hc      1028 PE      -0.019800
   6165 H21        13.1830   -0.4050   -4.0770 hc      1028 PE      -0.019800
   6166 H22        13.5630   -0.8050   -5.7170 hc      1028 PE      -0.019800
   6167 C1         12.4030   -2.3750   -4.7070 c3      1028 PE       0.039600
   6168 C2         13.4830   -1.2450   -4.7170 c3      1028 PE       0.039600
   6169 H11        15.0930   -2.2950   -3.3270 hc      1029 PE      -0.019800
   6170 H12        15.4230   -2.3750   -5.0570 hc      1029 PE      -0.019800
   6171 H21        15.3830    0.0650   -3.4870 hc      1029 PE      -0.019800
   6172 H22        15.7730    0.0150   -5.1070 hc      1029 PE      -0.019800
   6173 C1         14.9530   -1.7650   -4.2770 c3      1029 PE       0.039600
   6174 C2         15.9030   -0.5850   -4.1970 c3      1029 PE       0.039600
   6175 H11        17.3630   -1.0050   -2.7370 hc      1030 PE      -0.019800
   6176 H12        17.5430   -1.8350   -4.2770 hc      1030 PE      -0.019800
   6177 H21        18.0630    1.1150   -3.5670 hc      1030 PE      -0.019800
   6178 H22        18.3430    0.6350   -5.1770 hc      1030 PE      -0.019800
   6179 C1         17.3230   -0.8550   -3.8270 c3      1030 PE       0.039600
   6180 C2         18.3530    0.2350   -4.1570 c3      1030 PE       0.039600
   6181 H11        19.8730   -0.3950   -2.7070 hc      1031 PE      -0.019800
   6182 H12        20.1530   -1.1650   -4.3070 hc      1031 PE      -0.019800
   6183 H21        20.5930    1.7650   -3.4870 hc      1031 PE      -0.019800
   6184 H22        20.6330    1.1550   -5.1970 hc      1031 PE      -0.019800
   6185 C1         19.8730   -0.2350   -3.7970 c3      1031 PE       0.039600
   6186 C2         20.8330    0.9250   -4.1470 c3      1031 PE       0.039600
   6187 H11        22.3230    0.1950   -2.8670 hc      1032 PE      -0.019800
   6188 H12        22.5830   -0.4950   -4.4770 hc      1032 PE      -0.019800
   6189 H21        23.0930    2.4450   -3.6170 hc      1032 PE      -0.019800
   6190 H22        23.1830    1.8950   -5.2870 hc      1032 PE      -0.019800
   6191 C1         22.3130    0.4250   -3.9370 c3      1032 PE       0.039600
   6192 C2         23.2830    1.5650   -4.2470 c3      1032 PE       0.039600
   6193 H11        24.8930    0.6650   -3.0670 hc      1033 PE      -0.019800
   6194 H12        25.1630    0.5150   -4.7670 hc      1033 PE      -0.019800
   6195 H21        25.3330    3.0650   -2.9270 hc      1033 PE      -0.019800
   6196 H22        25.4330    3.2650   -4.5970 hc      1033 PE      -0.019800
   6197 C1         24.7630    1.2150   -4.0170 c3      1033 PE       0.039600
   6198 C2         25.6730    2.5250   -3.8170 c3      1033 PE       0.039600
   6199 H11        27.2030    1.3850   -2.9670 hc      1034 PE      -0.019800
   6200 H12        27.4330    1.2750   -4.6070 hc      1034 PE      -0.019800
   6201 H21        28.0730    3.7350   -2.8970 hc      1034 PE      -0.019800
   6202 H22        28.0030    3.8350   -4.6170 hc      1034 PE      -0.019800
   6203 C1         27.1730    2.0250   -3.8570 c3      1034 PE       0.039600
   6204 C2         28.2230    3.1350   -3.7970 c3      1034 PE       0.039600
   6205 H11        30.0230    1.9550   -3.3170 hc      1035 PE      -0.019800
   6206 H12        29.8930    2.4050   -5.0270 hc      1035 PE      -0.019800
   6207 H21        30.7230    4.0450   -2.5670 hc      1035 PE      -0.019800
   6208 H22        30.4930    4.8450   -4.1770 hc      1035 PE      -0.019800
   6209 C1         29.7130    2.7550   -3.9970 c3      1035 PE       0.039600
   6210 C2         30.7530    3.9250   -3.6470 c3      1035 PE       0.039600
   6211 H11        32.5030    2.8250   -3.2570 hc      1036 PE      -0.019800
   6212 H12        32.4230    3.2450   -5.0470 hc      1036 PE      -0.019800
   6213 H21        33.0730    5.2850   -2.7970 hc      1036 PE      -0.019800
   6214 H22        32.8930    5.4450   -4.6170 hc      1036 PE      -0.019800
   6215 C1         32.2530    3.5850   -4.0170 c3      1036 PE       0.039600
   6216 C2         33.1430    4.7950   -3.7770 c3      1036 PE       0.039600
   6217 H11        34.9230    3.5450   -3.3070 hc      1037 PE      -0.019800
   6218 H12        34.8930    4.0450   -4.9870 hc      1037 PE      -0.019800
   6219 H21        35.3730    5.7050   -2.5670 hc      1037 PE      -0.019800
   6220 H22        35.2830    6.3850   -4.2270 hc      1037 PE      -0.019800
   6221 C1         34.6430    4.3750   -3.9670 c3      1037 PE       0.039600
   6222 C2         35.5530    5.5050   -3.6270 c3      1037 PE       0.039600
   6223 H11        37.1530    4.1250   -3.6470 hc      1038 PE      -0.019800
   6224 H12        37.1330    5.1250   -5.0670 hc      1038 PE      -0.019800
   6225 H21        38.1930    5.9650   -2.3270 hc      1038 PE      -0.019800
   6226 H22        37.8930    7.0350   -3.5870 hc      1038 PE      -0.019800
   6227 C1         37.0030    5.1550   -3.9770 c3      1038 PE       0.039600
   6228 C2         38.1230    5.9750   -3.4270 c3      1038 PE       0.039600
   6229 H11       -40.0170    4.6750   -3.5370 hc      1039 PE      -0.019800
   6230 H12       -40.4970    5.3550   -5.0670 hc      1039 PE      -0.019800
   6231 H21       -39.5170    7.1250   -2.8070 hc      1039 PE      -0.019800
   6232 H22       -40.0370    7.5050   -4.4770 hc      1039 PE      -0.019800
   6233 C1        -40.4170    5.5850   -3.9970 c3      1039 PE       0.039600
   6234 C2        -39.5470    6.7650   -3.8370 c3      1039 PE       0.039600
   6235 H11       -37.8870    5.5850   -3.7470 hc      1040 PE      -0.019800
   6236 H12       -37.9970    6.4650   -5.2970 hc      1040 PE      -0.019800
   6237 H21       -36.0870    7.2050   -3.5870 hc      1040 PE      -0.019800
   6238 H22       -37.2870    7.7950   -2.5570 hc      1040 PE      -0.019800
   6239 C1        -38.0970    6.5650   -4.2170 c3      1040 PE       0.039600
   6240 C2        -37.1070    7.5850   -3.6270 c3      1040 PE       0.039600
   6241 H11       -37.4270    8.9050   -5.4470 hc      1041 PE      -0.019800
   6242 H12       -38.3270    9.2750   -4.0570 hc      1041 PE      -0.019800
   6243 H21       -36.7470   10.9850   -4.1870 hc      1041 PE      -0.019800
   6244 H22       -35.3770    9.8850   -4.4270 hc      1041 PE      -0.019800
   6245 C1        -37.3170    8.9650   -4.3570 c3      1041 PE       0.039600
   6246 C2        -36.3070   10.0250   -3.8770 c3      1041 PE       0.039600
   6247 H11       -35.6770    9.1650   -2.0170 hc      1042 PE      -0.019800
   6248 H12       -35.0270   10.7650   -2.3270 hc      1042 PE      -0.019800
   6249 H21       -37.9970   10.0550   -1.6170 hc      1042 PE      -0.019800
   6250 H22       -37.5270   11.6550   -2.0070 hc      1042 PE      -0.019800
   6251 C1        -35.9470   10.1650   -2.3570 c3      1042 PE       0.039600
   6252 C2        -37.1270   10.7350   -1.5570 c3      1042 PE       0.039600
   6253 H11       -37.0270   10.1950    0.6530 hc      1043 PE      -0.019800
   6254 H12       -35.8870   11.3250    0.0030 hc      1043 PE      -0.019800
   6255 H21       -38.8170   12.3050   -0.0270 hc      1043 PE      -0.019800
   6256 H22       -37.2670   13.1250    0.1930 hc      1043 PE      -0.019800
   6257 C1        -36.9370   11.0250   -0.0570 c3      1043 PE       0.039600
   6258 C2        -37.8170   12.2050    0.4230 c3      1043 PE       0.039600
   6259 H11       -38.2670   11.1450    2.2230 hc      1044 PE      -0.019800
   6260 H12       -37.1970   12.5250    2.4730 hc      1044 PE      -0.019800
   6261 H21       -39.9770   13.3550    1.5530 hc      1044 PE      -0.019800
   6262 H22       -38.6170   14.1950    2.3630 hc      1044 PE      -0.019800
   6263 C1        -38.0770   12.1850    1.9130 c3      1044 PE       0.039600
   6264 C2        -39.1670   13.2550    2.2730 c3      1044 PE       0.039600
   6265 H11       -40.3370   12.0250    3.6030 hc      1045 PE      -0.019800
   6266 H12       -39.0470   12.9050    4.4630 hc      1045 PE      -0.019800
   6267 H21       -40.0870   14.9250    4.2730 hc      1045 PE      -0.019800
   6268 H22       -41.1270   13.7350    5.1030 hc      1045 PE      -0.019800
   6269 C1        -39.8070   12.9750    3.6730 c3      1045 PE       0.039600
   6270 C2        -40.7670   14.0850    4.1330 c3      1045 PE       0.039600
   6271 H11        38.4230   15.1250    2.3630 hc      1046 PE      -0.019800
   6272 H12        37.4430   13.7250    2.8930 hc      1046 PE      -0.019800
   6273 H21        37.9030   16.1150    4.7530 hc      1046 PE      -0.019800
   6274 H22        36.6530   14.9050    4.8830 hc      1046 PE      -0.019800
   6275 C1         38.0630   14.5650    3.2330 c3      1046 PE       0.039600
   6276 C2         37.2330   15.4850    4.1530 c3      1046 PE       0.039600
   6277 H11        36.4430   16.7050    2.4030 hc      1047 PE      -0.019800
   6278 H12        35.2930   15.6550    3.1930 hc      1047 PE      -0.019800
   6279 H21        36.4730   18.3150    4.0230 hc      1047 PE      -0.019800
   6280 H22        35.6530   17.2550    5.2130 hc      1047 PE      -0.019800
   6281 C1         36.1130   16.3450    3.3830 c3      1047 PE       0.039600
   6282 C2         35.6730   17.5850    4.1630 c3      1047 PE       0.039600
   6283 H11        34.1730   18.4650    2.7330 hc      1048 PE      -0.019800
   6284 H12        33.5430   17.1850    3.7330 hc      1048 PE      -0.019800
   6285 H21        34.4230   19.8450    4.8030 hc      1048 PE      -0.019800
   6286 H22        33.6530   18.5650    5.7430 hc      1048 PE      -0.019800
   6287 C1         34.2630   18.0150    3.7330 c3      1048 PE       0.039600
   6288 C2         33.7330   18.9950    4.7330 c3      1048 PE       0.039600
   6289 H11        32.0930   19.2450    3.3130 hc      1049 PE      -0.019800
   6290 H12        31.5230   19.1950    4.9130 hc      1049 PE      -0.019800
   6291 H21        32.9930   21.6350    4.0830 hc      1049 PE      -0.019800
   6292 H22        32.2430   21.2650    5.6130 hc      1049 PE      -0.019800
   6293 C1         32.3530   19.5850    4.3230 c3      1049 PE       0.039600
   6294 C2         32.1430   21.1150    4.5330 c3      1049 PE       0.039600
   6295 H11        30.4430   21.2150    3.1830 hc      1050 PE      -0.019800
   6296 H12        29.9130   21.2050    4.8430 hc      1050 PE      -0.019800
   6297 H21        30.8430   23.7050    5.0630 hc      1050 PE      -0.019800
   6298 H22        31.2930   23.4450    3.2530 hc      1050 PE      -0.019800
   6299 C1         30.6830   21.6250    4.1830 c3      1050 PE       0.039600
   6300 C2         30.6930   23.1550    4.1330 c3      1050 PE       0.039600
   6301 H11       -25.8370    6.1450    3.2830 hc      1051 PE      -0.019800
   6302 H12       -24.6970    7.4050    2.7030 hc      1051 PE      -0.019800
   6303 H21       -26.9170    7.2350    1.4430 hc      1051 PE      -0.019800
   6304 H22       -26.2270    8.8350    1.8430 hc      1051 PE      -0.019800
   6305 C1        -25.6770    7.2250    3.1530 c3      1051 PE       0.039600
   6306 C2        -26.6670    7.9250    2.2630 c3      1051 PE       0.039600
   6307 H11       -28.1470    7.4350    3.6530 hc      1052 PE      -0.019800
   6308 H12       -27.7170    9.1250    3.5930 hc      1052 PE      -0.019800
   6309 H21       -29.3070    7.9050    1.2130 hc      1052 PE      -0.019800
   6310 H22       -28.7870    9.6250    1.3230 hc      1052 PE      -0.019800
   6311 C1        -27.9970    8.2750    2.9630 c3      1052 PE       0.039600
   6312 C2        -29.1170    8.7450    1.8930 c3      1052 PE       0.039600
   6313 H11       -30.9170    8.1450    2.9830 hc      1053 PE      -0.019800
   6314 H12       -30.3970    9.6050    3.5430 hc      1053 PE      -0.019800
   6315 H21       -31.4870    9.5750    0.7330 hc      1053 PE      -0.019800
   6316 H22       -31.1370   10.8550    1.8830 hc      1053 PE      -0.019800
   6317 C1        -30.4970    9.0750    2.5830 c3      1053 PE       0.039600
   6318 C2        -31.5170    9.8250    1.8030 c3      1053 PE       0.039600
   6319 H11       -33.5970   10.3050    1.5830 hc      1054 PE      -0.019800
   6320 H12       -33.4770    8.7550    2.3330 hc      1054 PE      -0.019800
   6321 H21       -33.0770   11.6150    3.2230 hc      1054 PE      -0.019800
   6322 H22       -32.7670   10.3550    4.4130 hc      1054 PE      -0.019800
   6323 C1        -33.0070    9.7450    2.3230 c3      1054 PE       0.039600
   6324 C2        -33.3570   10.5950    3.5130 c3      1054 PE       0.039600
   6325 H11       -35.5170   10.7850    3.1130 hc      1055 PE      -0.019800
   6326 H12       -35.0170    9.3150    3.9230 hc      1055 PE      -0.019800
   6327 H21       -35.0270   12.1650    5.3130 hc      1055 PE      -0.019800
   6328 H22       -34.6170   10.6650    6.0830 hc      1055 PE      -0.019800
   6329 C1        -34.8370   10.4050    3.8830 c3      1055 PE       0.039600
   6330 C2        -35.2170   11.0850    5.2630 c3      1055 PE       0.039600
   6331 H11       -37.2870   11.3850    4.6630 hc      1056 PE      -0.019800
   6332 H12       -36.9270    9.8750    5.5330 hc      1056 PE      -0.019800
   6333 H21       -37.3370   12.5050    6.9130 hc      1056 PE      -0.019800
   6334 H22       -36.7570   11.0150    7.7430 hc      1056 PE      -0.019800
   6335 C1        -36.7570   10.9550    5.5230 c3      1056 PE       0.039600
   6336 C2        -37.3570   11.4050    6.9130 c3      1056 PE       0.039600
   6337 H11       -39.3970   11.4250    6.3930 hc      1057 PE      -0.019800
   6338 H12       -38.8870    9.8650    6.9330 hc      1057 PE      -0.019800
   6339 H21       -39.1970   12.0250    9.0930 hc      1057 PE      -0.019800
   6340 H22       -38.8670   10.2350    9.2030 hc      1057 PE      -0.019800
   6341 C1        -38.8070   10.9350    7.1630 c3      1057 PE       0.039600
   6342 C2        -39.3470   11.0450    8.6430 c3      1057 PE       0.039600
   6343 H11        38.8430   10.0950    8.0930 hc      1058 PE      -0.019800
   6344 H12        38.9230   10.6050    9.8030 hc      1058 PE      -0.019800
   6345 H21        38.9230   12.7150    7.7030 hc      1058 PE      -0.019800
   6346 H22        38.6830   12.9550    9.3130 hc      1058 PE      -0.019800
   6347 C1         39.1430   10.9050    8.7730 c3      1058 PE       0.039600
   6348 C2         38.4430   12.2050    8.5430 c3      1058 PE       0.039600
   6349 H11        36.5530   11.4650    7.9830 hc      1059 PE      -0.019800
   6350 H12        36.5430   12.2450    9.6130 hc      1059 PE      -0.019800
   6351 H21        35.3630   13.4050    7.6330 hc      1059 PE      -0.019800
   6352 H22        36.9030   13.5850    6.9030 hc      1059 PE      -0.019800
   6353 C1         36.9330   12.2950    8.5930 c3      1059 PE       0.039600
   6354 C2         36.4230   13.5150    7.8830 c3      1059 PE       0.039600
   6355 H11        35.7630   14.7850    9.4930 hc      1060 PE      -0.019800
   6356 H12        37.4630   14.8050    9.2630 hc      1060 PE      -0.019800
   6357 H21        35.8030   16.2450    7.3330 hc      1060 PE      -0.019800
   6358 H22        37.5630   15.8750    7.2430 hc      1060 PE      -0.019800
   6359 C1         36.5230   14.7650    8.7030 c3      1060 PE       0.039600
   6360 C2         36.7130   16.0350    7.9130 c3      1060 PE       0.039600
   6361 H11        36.2430   17.5850    9.3930 hc      1061 PE      -0.019800
   6362 H12        37.8530   16.9450    9.5330 hc      1061 PE      -0.019800
   6363 H21        36.7830   18.8650    7.5230 hc      1061 PE      -0.019800
   6364 H22        38.3330   18.0550    7.2430 hc      1061 PE      -0.019800
   6365 C1         37.0930   17.2250    8.7930 c3      1061 PE       0.039600
   6366 C2         37.6430   18.4050    8.0230 c3      1061 PE       0.039600
   6367 H11        37.6030   19.6550    9.7830 hc      1062 PE      -0.019800
   6368 H12        39.1330   18.8650    9.3930 hc      1062 PE      -0.019800
   6369 H21        37.7330   21.2950    8.0430 hc      1062 PE      -0.019800
   6370 H22        38.9930   20.2850    7.2130 hc      1062 PE      -0.019800
   6371 C1         38.2630   19.3750    8.9630 c3      1062 PE       0.039600
   6372 C2         38.5730   20.6050    8.1730 c3      1062 PE       0.039600
   6373 H11       -40.7670   21.5050   10.0030 hc      1063 PE      -0.019800
   6374 H12       -39.4670   20.8550    9.0530 hc      1063 PE      -0.019800
   6375 H21       -41.1870   23.1550    8.2330 hc      1063 PE      -0.019800
   6376 H22       -39.9870   22.6050    7.1730 hc      1063 PE      -0.019800
   6377 C1        -40.4070   21.4150    8.9630 c3      1063 PE       0.039600
   6378 C2        -40.1670   22.7550    8.2530 c3      1063 PE       0.039600
   6379 H11       -39.6570   24.6450    9.3030 hc      1064 PE      -0.019800
   6380 H12       -38.8670   23.2350    9.9630 hc      1064 PE      -0.019800
   6381 H21       -38.1670   24.6150    7.3530 hc      1064 PE      -0.019800
   6382 H22       -37.3170   23.2050    7.8930 hc      1064 PE      -0.019800
   6383 C1        -39.1070   23.7350    9.0230 c3      1064 PE       0.039600
   6384 C2        -37.8370   24.0850    8.2630 c3      1064 PE       0.039600
   6385 H11       -37.1370   25.9150    9.4130 hc      1065 PE      -0.019800
   6386 H12       -36.5770   24.3850   10.0630 hc      1065 PE      -0.019800
   6387 H21       -35.8070   25.5150    7.3630 hc      1065 PE      -0.019800
   6388 H22       -34.9570   24.1450    8.0730 hc      1065 PE      -0.019800
   6389 C1        -36.7970   24.9050    9.1230 c3      1065 PE       0.039600
   6390 C2        -35.5070   25.0550    8.3130 c3      1065 PE       0.039600
   6391 H11       -34.9770   27.1250    9.1130 hc      1066 PE      -0.019800
   6392 H12       -34.2370   25.8950    9.9930 hc      1066 PE      -0.019800
   6393 H21       -33.3670   26.3150    7.2430 hc      1066 PE      -0.019800
   6394 H22       -32.6270   25.3250    8.4130 hc      1066 PE      -0.019800
   6395 C1        -34.5170   26.1450    8.9630 c3      1066 PE       0.039600
   6396 C2        -33.1170   26.3050    8.3030 c3      1066 PE       0.039600
   6397 H11       -32.8670   28.3850    8.4930 hc      1067 PE      -0.019800
   6398 H12       -32.0770   27.6050    9.8230 hc      1067 PE      -0.019800
   6399 H21       -30.8570   27.4450    6.9830 hc      1067 PE      -0.019800
   6400 H22       -30.2570   26.8050    8.4830 hc      1067 PE      -0.019800
   6401 C1        -32.2570   27.5150    8.7430 c3      1067 PE       0.039600
   6402 C2        -30.8470   27.6250    8.0630 c3      1067 PE       0.039600
   6403 H11       -30.8970   29.7950    7.9130 hc      1068 PE      -0.019800
   6404 H12       -30.3770   29.2250    9.5030 hc      1068 PE      -0.019800
   6405 H21       -28.5870   29.1750    7.0330 hc      1068 PE      -0.019800
   6406 H22       -28.3570   28.1850    8.3630 hc      1068 PE      -0.019800
   6407 C1        -30.2770   29.0450    8.4330 c3      1068 PE       0.039600
   6408 C2        -28.8270   29.1450    8.1030 c3      1068 PE       0.039600
   6409 H11       -27.9970   30.0650    9.9730 hc      1069 PE      -0.019800
   6410 H12       -26.9970   30.2350    8.5330 hc      1069 PE      -0.019800
   6411 H21       -29.5870   31.9350    9.0530 hc      1069 PE      -0.019800
   6412 H22       -28.7570   31.8250    7.5930 hc      1069 PE      -0.019800
   6413 C1        -28.0270   30.2550    8.8930 c3      1069 PE       0.039600
   6414 C2        -28.5770   31.7350    8.6730 c3      1069 PE       0.039600
   6415 H11       -27.1970   32.6150   10.1630 hc      1070 PE      -0.019800
   6416 H12       -26.7270   32.6350    8.3830 hc      1070 PE      -0.019800
   6417 H21       -28.7970   34.1650    9.8130 hc      1070 PE      -0.019800
   6418 H22       -28.4570   34.2350    7.9530 hc      1070 PE      -0.019800
   6419 C1        -27.5270   32.7650    9.1230 c3      1070 PE       0.039600
   6420 C2        -28.0770   34.1450    8.9830 c3      1070 PE       0.039600
   6421 H11       -26.4070   35.0650   10.1030 hc      1071 PE      -0.019800
   6422 H12       -26.2370   34.7850    8.3530 hc      1071 PE      -0.019800
   6423 H21       -26.2570   37.3050    9.0030 hc      1071 PE      -0.019800
   6424 H22       -27.8370   37.0250    9.6530 hc      1071 PE      -0.019800
   6425 C1        -26.9070   35.1550    9.1330 c3      1071 PE       0.039600
   6426 C2        -27.1570   36.6850    8.8730 c3      1071 PE       0.039600
   6427 H11       -26.9370   36.9950    6.8130 hc      1072 PE      -0.019800
   6428 H12       -28.5170   36.2250    7.3030 hc      1072 PE      -0.019800
   6429 H21       -28.3770   38.6950    6.3030 hc      1072 PE      -0.019800
   6430 H22       -27.8270   39.1350    7.8530 hc      1072 PE      -0.019800
   6431 C1        -27.7770   37.0050    7.5130 c3      1072 PE       0.039600
   6432 C2        -28.4870   38.4050    7.3530 c3      1072 PE       0.039600
   6433 H11       -30.6470   37.7550    7.1230 hc      1073 PE      -0.019800
   6434 H12       -30.0370   37.7150    8.6630 hc      1073 PE      -0.019800
   6435 H21       -30.5770   40.1550    7.0230 hc      1073 PE      -0.019800
   6436 H22       -30.1270   40.3950    8.6630 hc      1073 PE      -0.019800
   6437 C1        -29.9870   38.3450    7.7630 c3      1073 PE       0.039600
   6438 C2        -30.6570   39.6950    8.0130 c3      1073 PE       0.039600
   6439 H11       -32.6470  -41.1250    7.7130 hc      1074 PE      -0.019800
   6440 H12       -32.1370  -40.7550    9.4230 hc      1074 PE      -0.019800
   6441 H21       -33.1270  -38.8650    7.2930 hc      1074 PE      -0.019800
   6442 H22       -32.5170  -38.3750    8.9930 hc      1074 PE      -0.019800
   6443 C1        -32.1670  -40.3950    8.3830 c3      1074 PE       0.039600
   6444 C2        -33.0170  -39.1150    8.3530 c3      1074 PE       0.039600
   6445 H11       -34.8970  -40.2250    8.3730 hc      1075 PE      -0.019800
   6446 H12       -34.4170  -39.4650    9.9330 hc      1075 PE      -0.019800
   6447 H21       -35.2270  -37.6850    7.6530 hc      1075 PE      -0.019800
   6448 H22       -35.1470  -37.3150    9.3430 hc      1075 PE      -0.019800
   6449 C1        -34.4370  -39.3550    8.8430 c3      1075 PE       0.039600
   6450 C2        -35.3670  -38.1350    8.6430 c3      1075 PE       0.039600
   6451 H11       -37.1270  -39.4050    8.0330 hc      1076 PE      -0.019800
   6452 H12       -36.7770  -39.4250    9.7230 hc      1076 PE      -0.019800
   6453 H21       -37.8370  -37.1850    7.9530 hc      1076 PE      -0.019800
   6454 H22       -37.7270  -37.0150    9.8130 hc      1076 PE      -0.019800
   6455 C1        -36.7970  -38.7550    8.8530 c3      1076 PE       0.039600
   6456 C2        -37.8770  -37.6650    8.9430 c3      1076 PE       0.039600
   6457 H11       -39.4370  -38.6550    8.1630 hc      1077 PE      -0.019800
   6458 H12       -39.3370  -39.1050    9.8630 hc      1077 PE      -0.019800
   6459 H21       -40.0870  -36.2950    8.5430 hc      1077 PE      -0.019800
   6460 H22       -40.4170  -36.7650   10.2230 hc      1077 PE      -0.019800
   6461 C1        -39.2370  -38.2550    9.1730 c3      1077 PE       0.039600
   6462 C2        -40.3670  -37.1250    9.1930 c3      1077 PE       0.039600
   6463 H11        38.1330  -37.9550    7.7330 hc      1078 PE      -0.019800
   6464 H12        37.8130  -38.3150    9.4630 hc      1078 PE      -0.019800
   6465 H21        37.8030  -35.7450    8.0330 hc      1078 PE      -0.019800
   6466 H22        37.1930  -35.8950    9.6730 hc      1078 PE      -0.019800
   6467 C1         38.1830  -37.5550    8.7530 c3      1078 PE       0.039600
   6468 C2         37.2130  -36.3850    8.6930 c3      1078 PE       0.039600
   6469 H11        35.1430  -35.9050    7.8430 hc      1079 PE      -0.019800
   6470 H12        35.9630  -37.2950    7.2030 hc      1079 PE      -0.019800
   6471 H21        34.9930  -37.3350   10.0930 hc      1079 PE      -0.019800
   6472 H22        35.7330  -38.5850    9.1830 hc      1079 PE      -0.019800
   6473 C1         35.8030  -36.7350    8.1330 c3      1079 PE       0.039600
   6474 C2         35.0430  -37.7350    9.0730 c3      1079 PE       0.039600
   6475 H11        33.7030  -38.5550    7.5130 hc      1080 PE      -0.019800
   6476 H12        33.5430  -39.2850    9.0530 hc      1080 PE      -0.019800
   6477 H21        32.8330  -36.3250    8.2430 hc      1080 PE      -0.019800
   6478 H22        31.7030  -37.5350    8.6830 hc      1080 PE      -0.019800
   6479 C1         33.7130  -38.3050    8.5830 c3      1080 PE       0.039600
   6480 C2         32.7130  -37.1650    8.9330 c3      1080 PE       0.039600
   6481 H11       -36.2070  -35.7150   -3.2270 hc      1081 PE      -0.019800
   6482 H12       -37.0570  -37.2450   -3.6870 hc      1081 PE      -0.019800
   6483 H21       -34.0470  -37.1750   -3.0170 hc      1081 PE      -0.019800
   6484 H22       -34.4770  -36.9150   -4.6670 hc      1081 PE      -0.019800
   6485 C1        -36.1270  -36.8050   -3.3070 c3      1081 PE       0.039600
   6486 C2        -34.8270  -37.4050   -3.7470 c3      1081 PE       0.039600
   6487 H11       -35.1770  -39.3450   -2.8170 hc      1082 PE      -0.019800
   6488 H12       -35.5970  -39.3450   -4.5570 hc      1082 PE      -0.019800
   6489 H21       -32.7770  -38.8450   -3.4970 hc      1082 PE      -0.019800
   6490 H22       -33.2970  -39.3050   -5.1770 hc      1082 PE      -0.019800
   6491 C1        -34.8970  -38.9550   -3.8070 c3      1082 PE       0.039600
   6492 C2        -33.4770  -39.4250   -4.1070 c3      1082 PE       0.039600
   6493 H11       -33.8470   38.6350   -2.9370 hc      1083 PE      -0.019800
   6494 H12       -33.7970   38.5150   -4.6870 hc      1083 PE      -0.019800
   6495 H21       -31.2970   38.9150   -2.8470 hc      1083 PE      -0.019800
   6496 H22       -31.2170   38.9950   -4.5470 hc      1083 PE      -0.019800
   6497 C1        -33.2870   38.9550   -3.8270 c3      1083 PE       0.039600
   6498 C2        -31.7870   38.5150   -3.7470 c3      1083 PE       0.039600
   6499 H11       -32.0570   36.5350   -3.0770 hc      1084 PE      -0.019800
   6500 H12       -31.9570   36.6950   -4.8270 hc      1084 PE      -0.019800
   6501 H21       -29.5670   37.2350   -2.8770 hc      1084 PE      -0.019800
   6502 H22       -29.5370   37.2950   -4.6270 hc      1084 PE      -0.019800
   6503 C1        -31.5270   37.0650   -3.8870 c3      1084 PE       0.039600
   6504 C2        -29.9670   36.7550   -3.7770 c3      1084 PE       0.039600
   6505 H11       -30.2370   34.6250   -3.0970 hc      1085 PE      -0.019800
   6506 H12       -30.1370   34.8450   -4.8270 hc      1085 PE      -0.019800
   6507 H21       -27.6270   35.5150   -3.2770 hc      1085 PE      -0.019800
   6508 H22       -27.8570   35.1450   -4.9770 hc      1085 PE      -0.019800
   6509 C1        -29.7370   35.2050   -3.8770 c3      1085 PE       0.039600
   6510 C2        -28.2170   34.9150   -3.9670 c3      1085 PE       0.039600
   6511 H11       -28.0870   33.1250   -2.6970 hc      1086 PE      -0.019800
   6512 H12       -28.2470   32.7950   -4.4570 hc      1086 PE      -0.019800
   6513 H21       -25.7370   33.7550   -2.9770 hc      1086 PE      -0.019800
   6514 H22       -25.8070   33.7350   -4.6770 hc      1086 PE      -0.019800
   6515 C1        -27.7370   33.3950   -3.6970 c3      1086 PE       0.039600
   6516 C2        -26.2170   33.2150   -3.8070 c3      1086 PE       0.039600
   6517 H11       -26.0070   31.3950   -2.8170 hc      1087 PE      -0.019800
   6518 H12       -26.0970   31.1250   -4.6170 hc      1087 PE      -0.019800
   6519 H21       -23.7370   32.3150   -3.2170 hc      1087 PE      -0.019800
   6520 H22       -23.8070   32.2150   -4.9170 hc      1087 PE      -0.019800
   6521 C1        -25.6770   31.7350   -3.8070 c3      1087 PE       0.039600
   6522 C2        -24.1370   31.6750   -4.0170 c3      1087 PE       0.039600
   6523 H11       -23.8570   29.6050   -3.1170 hc      1088 PE      -0.019800
   6524 H12       -24.0770   29.5450   -4.7170 hc      1088 PE      -0.019800
   6525 H21       -21.5770   30.6950   -3.2870 hc      1088 PE      -0.019800
   6526 H22       -21.8370   30.7450   -5.0570 hc      1088 PE      -0.019800
   6527 C1        -23.5770   30.2050   -3.9970 c3      1088 PE       0.039600
   6528 C2        -22.0370   30.1850   -4.1470 c3      1088 PE       0.039600
   6529 H11       -21.7470   28.1650   -3.3170 hc      1089 PE      -0.019800
   6530 H12       -21.9470   28.0450   -5.0070 hc      1089 PE      -0.019800
   6531 H21       -19.4670   29.4150   -3.8470 hc      1089 PE      -0.019800
   6532 H22       -19.7670   28.8950   -5.5270 hc      1089 PE      -0.019800
   6533 C1        -21.5170   28.7050   -4.2470 c3      1089 PE       0.039600
   6534 C2        -19.9570   28.6650   -4.4770 c3      1089 PE       0.039600
   6535 H11       -19.3870   27.0350   -3.0770 hc      1090 PE      -0.019800
   6536 H12       -19.7970   26.5450   -4.7170 hc      1090 PE      -0.019800
   6537 H21       -17.2870   27.9650   -3.7870 hc      1090 PE      -0.019800
   6538 H22       -17.6170   27.6150   -5.5470 hc      1090 PE      -0.019800
   6539 C1        -19.2870   27.3150   -4.1270 c3      1090 PE       0.039600
   6540 C2        -17.7470   27.2850   -4.5070 c3      1090 PE       0.039600
   6541 H11       -17.2570   25.7050   -3.1870 hc      1091 PE      -0.019800
   6542 H12       -17.6470   25.1150   -4.9170 hc      1091 PE      -0.019800
   6543 H21       -15.0970   26.4350   -3.8270 hc      1091 PE      -0.019800
   6544 H22       -15.3770   26.0450   -5.4470 hc      1091 PE      -0.019800
   6545 C1        -17.1970   25.8850   -4.2670 c3      1091 PE       0.039600
   6546 C2        -15.6770   25.7250   -4.4470 c3      1091 PE       0.039600
   6547 H11       -15.6770   23.9050   -3.3470 hc      1092 PE      -0.019800
   6548 H12       -15.6970   23.6250   -4.9870 hc      1092 PE      -0.019800
   6549 H21       -13.2970   24.4350   -3.1470 hc      1092 PE      -0.019800
   6550 H22       -13.0570   24.7550   -4.8070 hc      1092 PE      -0.019800
   6551 C1        -15.2270   24.3050   -4.2670 c3      1092 PE       0.039600
   6552 C2        -13.6570   24.1250   -4.1370 c3      1092 PE       0.039600
   6553 H11       -13.5970   21.9050   -3.7470 hc      1093 PE      -0.019800
   6554 H12       -13.3170   22.3150   -5.3870 hc      1093 PE      -0.019800
   6555 H21       -11.3270   22.7850   -3.0570 hc      1093 PE      -0.019800
   6556 H22       -11.0870   23.3550   -4.7870 hc      1093 PE      -0.019800
   6557 C1        -13.1170   22.6650   -4.3670 c3      1093 PE       0.039600
   6558 C2        -11.5670   22.6350   -4.1170 c3      1093 PE       0.039600
   6559 H11       -11.3770   20.5350   -3.5270 hc      1094 PE      -0.019800
   6560 H12       -11.5070   20.7150   -5.2670 hc      1094 PE      -0.019800
   6561 H21        -9.1370   21.6050   -3.4470 hc      1094 PE      -0.019800
   6562 H22        -9.1370   21.5350   -5.2770 hc      1094 PE      -0.019800
   6563 C1        -11.0270   21.1350   -4.3770 c3      1094 PE       0.039600
   6564 C2         -9.4570   21.0650   -4.3370 c3      1094 PE       0.039600
   6565 H11        -9.2470   19.2450   -3.1770 hc      1095 PE      -0.019800
   6566 H12        -9.5770   19.0150   -4.9370 hc      1095 PE      -0.019800
   6567 H21        -6.9470   20.1150   -3.9570 hc      1095 PE      -0.019800
   6568 H22        -7.2870   19.6350   -5.5870 hc      1095 PE      -0.019800
   6569 C1         -8.9970   19.5750   -4.1870 c3      1095 PE       0.039600
   6570 C2         -7.5270   19.3850   -4.5370 c3      1095 PE       0.039600
   6571 H11        -7.2770   17.5650   -3.3070 hc      1096 PE      -0.019800
   6572 H12        -7.3870   17.3150   -5.0370 hc      1096 PE      -0.019800
   6573 H21        -5.0770   18.6450   -3.5570 hc      1096 PE      -0.019800
   6574 H22        -5.0670   18.0150   -5.2870 hc      1096 PE      -0.019800
   6575 C1         -6.9870   17.9850   -4.2770 c3      1096 PE       0.039600
   6576 C2         -5.5070   17.9450   -4.2870 c3      1096 PE       0.039600
   6577 H11        -4.9870   16.4350   -2.7670 hc      1097 PE      -0.019800
   6578 H12        -5.7370   15.8250   -4.2370 hc      1097 PE      -0.019800
   6579 H21        -2.8970   16.8450   -4.1970 hc      1097 PE      -0.019800
   6580 H22        -3.6470   15.9450   -5.5070 hc      1097 PE      -0.019800
   6581 C1         -4.9670   16.5150   -3.8570 c3      1097 PE       0.039600
   6582 C2         -3.6070   16.0350   -4.4070 c3      1097 PE       0.039600
   6583 H11        -2.3670   14.3350   -4.5570 hc      1098 PE      -0.019800
   6584 H12        -2.8870   14.6850   -2.8370 hc      1098 PE      -0.019800
   6585 H21        -4.8570   13.5050   -4.9770 hc      1098 PE      -0.019800
   6586 H22        -5.0070   13.6850   -3.2670 hc      1098 PE      -0.019800
   6587 C1         -3.1770   14.6750   -3.8970 c3      1098 PE       0.039600
   6588 C2         -4.2570   13.5250   -4.0570 c3      1098 PE       0.039600
   6589 H11        -3.0270   11.7650   -4.6370 hc      1099 PE      -0.019800
   6590 H12        -3.1970   11.9750   -2.8770 hc      1099 PE      -0.019800
   6591 H21        -5.8170   11.4750   -4.2570 hc      1099 PE      -0.019800
   6592 H22        -5.1470   10.7850   -2.8070 hc      1099 PE      -0.019800
   6593 C1         -3.7170   12.0650   -3.8370 c3      1099 PE       0.039600
   6594 C2         -4.8970   11.0350   -3.8470 c3      1099 PE       0.039600
   6595 H11        -4.5470   10.0750   -5.6570 hc      1100 PE      -0.019800
   6596 H12        -3.8170    9.1550   -4.2970 hc      1100 PE      -0.019800
   6597 H21        -6.8070    9.4150   -4.8570 hc      1100 PE      -0.019800
   6598 H22        -6.1070    8.3750   -3.6170 hc      1100 PE      -0.019800
   6599 C1         -4.6970    9.7350   -4.6270 c3      1100 PE       0.039600
   6600 C2         -5.8870    8.8950   -4.5570 c3      1100 PE       0.039600
   6601 H11        -5.2270    7.9350   -6.4070 hc      1101 PE      -0.019800
   6602 H12        -5.1770    6.8750   -4.9670 hc      1101 PE      -0.019800
   6603 H21        -7.5270    7.7250   -6.6270 hc      1101 PE      -0.019800
   6604 H22        -7.8170    7.1150   -5.0370 hc      1101 PE      -0.019800
   6605 C1         -5.7370    7.6550   -5.4770 c3      1101 PE       0.039600
   6606 C2         -7.0670    7.1050   -5.8470 c3      1101 PE       0.039600
   6607 H11        -6.3270    5.9350   -7.4370 hc      1102 PE      -0.019800
   6608 H12        -6.1370    5.1550   -5.9670 hc      1102 PE      -0.019800
   6609 H21        -8.9470    5.4950   -7.1270 hc      1102 PE      -0.019800
   6610 H22        -8.6470    4.8850   -5.5470 hc      1102 PE      -0.019800
   6611 C1         -6.8870    5.7450   -6.5070 c3      1102 PE       0.039600
   6612 C2         -8.1870    4.9550   -6.5470 c3      1102 PE       0.039600
   6613 H11        -7.7870    3.7450   -8.1470 hc      1103 PE      -0.019800
   6614 H12        -7.1670    2.9950   -6.6870 hc      1103 PE      -0.019800
   6615 H21       -10.0970    3.1450   -7.4470 hc      1103 PE      -0.019800
   6616 H22        -9.6770    2.7150   -5.7570 hc      1103 PE      -0.019800
   6617 C1         -8.0270    3.5350   -7.0970 c3      1103 PE       0.039600
   6618 C2         -9.3470    2.6550   -6.7970 c3      1103 PE       0.039600
   6619 H11        -8.7570    1.2350   -8.1870 hc      1104 PE      -0.019800
   6620 H12        -8.4070    0.7150   -6.5370 hc      1104 PE      -0.019800
   6621 H21       -11.2170    0.9550   -7.6970 hc      1104 PE      -0.019800
   6622 H22       -10.8570    0.4750   -6.0570 hc      1104 PE      -0.019800
   6623 C1         -9.1770    1.1650   -7.1670 c3      1104 PE       0.039600
   6624 C2        -10.4870    0.4050   -7.0870 c3      1104 PE       0.039600
   6625 H11        -9.8870   -0.8150   -8.7170 hc      1105 PE      -0.019800
   6626 H12        -9.3870   -1.4450   -7.1470 hc      1105 PE      -0.019800
   6627 H21       -12.2570   -1.3050   -8.3170 hc      1105 PE      -0.019800
   6628 H22       -11.9370   -1.7850   -6.7170 hc      1105 PE      -0.019800
   6629 C1        -10.2170   -0.9550   -7.6770 c3      1105 PE       0.039600
   6630 C2        -11.4970   -1.8350   -7.7170 c3      1105 PE       0.039600
   6631 H11       -10.7970   -3.2350   -9.3470 hc      1106 PE      -0.019800
   6632 H12       -10.4970   -3.7650   -7.6570 hc      1106 PE      -0.019800
   6633 H21       -12.9670   -3.8150   -9.5070 hc      1106 PE      -0.019800
   6634 H22       -13.0770   -3.9150   -7.6570 hc      1106 PE      -0.019800
   6635 C1        -11.1870   -3.2250   -8.3170 c3      1106 PE       0.039600
   6636 C2        -12.4770   -4.0950   -8.5670 c3      1106 PE       0.039600
   6637 H11       -11.6470   -5.7950   -9.6070 hc      1107 PE      -0.019800
   6638 H12       -11.7370   -5.9250   -7.7870 hc      1107 PE      -0.019800
   6639 H21       -14.1470   -6.1650   -9.6570 hc      1107 PE      -0.019800
   6640 H22       -14.2570   -6.0450   -7.9570 hc      1107 PE      -0.019800
   6641 C1        -12.2570   -5.6350   -8.7070 c3      1107 PE       0.039600
   6642 C2        -13.5970   -6.4150   -8.7470 c3      1107 PE       0.039600
   6643 H11       -12.7070   -8.3350   -9.0170 hc      1108 PE      -0.019800
   6644 H12       -12.9670   -7.9450   -7.3770 hc      1108 PE      -0.019800
   6645 H21       -15.3470   -8.6050   -9.1070 hc      1108 PE      -0.019800
   6646 H22       -15.3770   -8.1950   -7.4270 hc      1108 PE      -0.019800
   6647 C1        -13.4570   -7.8750   -8.3570 c3      1108 PE       0.039600
   6648 C2        -14.7370   -8.6450   -8.1970 c3      1108 PE       0.039600
   6649 H11       -13.8070  -10.4050   -8.7870 hc      1109 PE      -0.019800
   6650 H12       -13.7170  -10.1950   -7.0070 hc      1109 PE      -0.019800
   6651 H21       -16.0570  -10.6650   -8.8870 hc      1109 PE      -0.019800
   6652 H22       -16.2670  -10.3850   -7.1070 hc      1109 PE      -0.019800
   6653 C1        -14.3570  -10.0850   -7.8970 c3      1109 PE       0.039600
   6654 C2        -15.6470  -10.8450   -7.8870 c3      1109 PE       0.039600
   6655 H11       -14.6970  -12.3550   -6.9170 hc      1110 PE      -0.019800
   6656 H12       -16.3470  -12.8450   -7.2970 hc      1110 PE      -0.019800
   6657 H21       -15.9270  -13.4950   -9.4470 hc      1110 PE      -0.019800
   6658 H22       -14.7870  -14.2050   -8.4370 hc      1110 PE      -0.019800
   6659 C1        -15.4570  -12.3450   -7.7070 c3      1110 PE       0.039600
   6660 C2        -15.0270  -13.2350   -8.8770 c3      1110 PE       0.039600
   6661 H11       -11.8770   15.5450   -9.1170 hc      1111 PE      -0.019800
   6662 H12       -13.1070   16.8550   -9.0070 hc      1111 PE      -0.019800
   6663 H21       -14.1070   14.6450   -9.5470 hc      1111 PE      -0.019800
   6664 H22       -14.7470   15.3950   -8.1070 hc      1111 PE      -0.019800
   6665 C1        -12.7370   15.9150   -8.5570 c3      1111 PE       0.039600
   6666 C2        -13.8770   14.8650   -8.4970 c3      1111 PE       0.039600
   6667 H11       -12.6170   13.1150   -8.1970 hc      1112 PE      -0.019800
   6668 H12       -13.3070   13.7650   -6.7170 hc      1112 PE      -0.019800
   6669 H21       -15.0870   12.6050   -8.9670 hc      1112 PE      -0.019800
   6670 H22       -15.5470   12.7550   -7.2570 hc      1112 PE      -0.019800
   6671 C1        -13.5270   13.5350   -7.7670 c3      1112 PE       0.039600
   6672 C2        -14.7070   12.5450   -7.9370 c3      1112 PE       0.039600
   6673 H11       -13.6770   10.7050   -8.1970 hc      1113 PE      -0.019800
   6674 H12       -14.0270   10.9250   -6.5170 hc      1113 PE      -0.019800
   6675 H21       -16.0370   10.3350   -8.7870 hc      1113 PE      -0.019800
   6676 H22       -16.6870   10.4250   -7.2070 hc      1113 PE      -0.019800
   6677 C1        -14.4470   11.0950   -7.5270 c3      1113 PE       0.039600
   6678 C2        -15.7670   10.1550   -7.7370 c3      1113 PE       0.039600
   6679 H11       -14.6170    8.3150   -8.0870 hc      1114 PE      -0.019800
   6680 H12       -15.2970    8.3950   -6.5470 hc      1114 PE      -0.019800
   6681 H21       -17.1270    7.9950   -8.9270 hc      1114 PE      -0.019800
   6682 H22       -17.5870    7.9250   -7.2970 hc      1114 PE      -0.019800
   6683 C1        -15.5370    8.6350   -7.5870 c3      1114 PE       0.039600
   6684 C2        -16.7270    7.7350   -7.9370 c3      1114 PE       0.039600
   6685 H11       -15.6170    5.9950   -8.6370 hc      1115 PE      -0.019800
   6686 H12       -15.9170    5.8750   -6.9270 hc      1115 PE      -0.019800
   6687 H21       -18.2770    5.8650   -8.8570 hc      1115 PE      -0.019800
   6688 H22       -18.2870    5.3850   -7.2670 hc      1115 PE      -0.019800
   6689 C1        -16.3870    6.1650   -7.8770 c3      1115 PE       0.039600
   6690 C2        -17.6170    5.3650   -8.1370 c3      1115 PE       0.039600
   6691 H11       -16.5270    3.7150   -9.2470 hc      1116 PE      -0.019800
   6692 H12       -16.9770    3.3850   -7.6570 hc      1116 PE      -0.019800
   6693 H21       -18.7870    3.4850   -9.9870 hc      1116 PE      -0.019800
   6694 H22       -19.4570    3.6250   -8.4070 hc      1116 PE      -0.019800
   6695 C1        -17.3470    3.9250   -8.5470 c3      1116 PE       0.039600
   6696 C2        -18.6070    3.1950   -8.9470 c3      1116 PE       0.039600
   6697 H11       -17.7870    1.2150   -9.3870 hc      1117 PE      -0.019800
   6698 H12       -18.3570    1.3350   -7.7070 hc      1117 PE      -0.019800
   6699 H21       -19.9970    0.6250  -10.1670 hc      1117 PE      -0.019800
   6700 H22       -20.8370    1.2850   -8.7770 hc      1117 PE      -0.019800
   6701 C1        -18.5970    1.5950   -8.7470 c3      1117 PE       0.039600
   6702 C2        -19.8970    0.8150   -9.0870 c3      1117 PE       0.039600
   6703 H11       -19.2870   -1.3750   -9.1370 hc      1118 PE      -0.019800
   6704 H12       -19.5970   -0.7550   -7.5370 hc      1118 PE      -0.019800
   6705 H21       -21.6970   -1.2150   -9.6670 hc      1118 PE      -0.019800
   6706 H22       -21.9470   -0.5650   -7.9870 hc      1118 PE      -0.019800
   6707 C1        -19.9370   -0.6850   -8.5770 c3      1118 PE       0.039600
   6708 C2        -21.4270   -1.3050   -8.6070 c3      1118 PE       0.039600
   6709 H11       -20.4370   -3.1950   -8.1370 hc      1119 PE      -0.019800
   6710 H12       -21.7970   -2.6350   -6.9770 hc      1119 PE      -0.019800
   6711 H21       -22.0470   -3.9550   -9.8170 hc      1119 PE      -0.019800
   6712 H22       -23.4570   -3.5050   -8.8070 hc      1119 PE      -0.019800
   6713 C1        -21.4470   -2.7850   -8.0070 c3      1119 PE       0.039600
   6714 C2        -22.4170   -3.8550   -8.7870 c3      1119 PE       0.039600
   6715 H11       -21.2070   -5.5250   -7.9970 hc      1120 PE      -0.019800
   6716 H12       -22.6670   -5.2850   -7.1570 hc      1120 PE      -0.019800
   6717 H21       -22.1970   -6.3850   -9.9770 hc      1120 PE      -0.019800
   6718 H22       -23.8270   -6.1250   -9.2770 hc      1120 PE      -0.019800
   6719 C1        -22.2570   -5.2350   -8.1670 c3      1120 PE       0.039600
   6720 C2        -22.7870   -6.3850   -9.0470 c3      1120 PE       0.039600
   6721 H11       -21.7870   -8.0750   -8.0470 hc      1121 PE      -0.019800
   6722 H12       -23.3570   -7.5950   -7.3470 hc      1121 PE      -0.019800
   6723 H21       -22.7170   -9.0150   -9.9570 hc      1121 PE      -0.019800
   6724 H22       -24.4470   -8.6450   -9.4270 hc      1121 PE      -0.019800
   6725 C1        -22.8070   -7.7450   -8.2870 c3      1121 PE       0.039600
   6726 C2        -23.4170   -8.8850   -9.1370 c3      1121 PE       0.039600
   6727 H11       -22.4670  -10.3650   -7.9670 hc      1122 PE      -0.019800
   6728 H12       -23.9670   -9.9150   -7.2870 hc      1122 PE      -0.019800
   6729 H21       -23.3370  -11.7150   -9.7070 hc      1122 PE      -0.019800
   6730 H22       -25.0170  -10.9450   -9.4870 hc      1122 PE      -0.019800
   6731 C1        -23.4870  -10.1050   -8.2570 c3      1122 PE       0.039600
   6732 C2        -24.1070  -11.3450   -9.0170 c3      1122 PE       0.039600
   6733 H11       -23.7470  -12.7850   -7.4070 hc      1123 PE      -0.019800
   6734 H12       -25.3370  -12.1150   -7.4470 hc      1123 PE      -0.019800
   6735 H21       -24.2470  -14.0950   -9.4570 hc      1123 PE      -0.019800
   6736 H22       -25.8470  -13.3350   -9.6970 hc      1123 PE      -0.019800
   6737 C1        -24.5570  -12.5250   -8.0970 c3      1123 PE       0.039600
   6738 C2        -25.1170  -13.6750   -8.9470 c3      1123 PE       0.039600
   6739 H11       -25.4770  -15.8450   -8.5470 hc      1124 PE      -0.019800
   6740 H12       -25.2870  -14.7650   -7.2170 hc      1124 PE      -0.019800
   6741 H21       -27.7870  -14.8650   -9.0170 hc      1124 PE      -0.019800
   6742 H22       -27.4770  -13.7150   -7.7470 hc      1124 PE      -0.019800
   6743 C1        -25.7670  -14.8450   -8.1970 c3      1124 PE       0.039600
   6744 C2        -27.3070  -14.7650   -8.0370 c3      1124 PE       0.039600
   6745 H11       -28.9870  -15.5550   -7.0870 hc      1125 PE      -0.019800
   6746 H12       -27.7070  -16.6950   -7.3270 hc      1125 PE      -0.019800
   6747 H21       -26.3970  -15.8850   -5.4870 hc      1125 PE      -0.019800
   6748 H22       -28.0270  -16.1050   -4.8770 hc      1125 PE      -0.019800
   6749 C1        -27.8970  -15.6650   -6.9770 c3      1125 PE       0.039600
   6750 C2        -27.4070  -15.4650   -5.5170 c3      1125 PE       0.039600
   6751 H11       -26.7070  -13.4050   -5.7570 hc      1126 PE      -0.019800
   6752 H12       -28.3870  -13.6550   -5.2270 hc      1126 PE      -0.019800
   6753 H21       -25.9870  -14.2650   -3.4970 hc      1126 PE      -0.019800
   6754 H22       -27.6870  -14.3350   -2.9770 hc      1126 PE      -0.019800
   6755 C1        -27.3570  -14.0150   -5.1070 c3      1126 PE       0.039600
   6756 C2        -26.9770  -13.8150   -3.6270 c3      1126 PE       0.039600
   6757 H11       -27.8670  -11.7950   -3.3370 hc      1127 PE      -0.019800
   6758 H12       -26.8170  -12.3550   -2.0870 hc      1127 PE      -0.019800
   6759 H21       -25.8870  -11.5550   -4.8870 hc      1127 PE      -0.019800
   6760 H22       -24.8870  -11.9050   -3.5070 hc      1127 PE      -0.019800
   6761 C1        -26.9370  -12.3550   -3.1770 c3      1127 PE       0.039600
   6762 C2        -25.8670  -11.4950   -3.7970 c3      1127 PE       0.039600
   6763 H11       -27.1470   -9.7450   -3.6370 hc      1128 PE      -0.019800
   6764 H12       -25.9470   -9.9450   -2.3370 hc      1128 PE      -0.019800
   6765 H21       -25.1170   -9.1150   -5.1870 hc      1128 PE      -0.019800
   6766 H22       -24.1370   -9.2250   -3.7670 hc      1128 PE      -0.019800
   6767 C1        -26.1070  -10.0050   -3.4170 c3      1128 PE       0.039600
   6768 C2        -25.1570   -8.9850   -4.0970 c3      1128 PE       0.039600
   6769 H11       -26.4970   -7.3150   -4.1170 hc      1129 PE      -0.019800
   6770 H12       -25.6370   -7.4850   -2.6170 hc      1129 PE      -0.019800
   6771 H21       -24.3770   -6.7950   -5.2270 hc      1129 PE      -0.019800
   6772 H22       -23.4970   -6.6550   -3.8470 hc      1129 PE      -0.019800
   6773 C1        -25.5170   -7.5550   -3.7070 c3      1129 PE       0.039600
   6774 C2        -24.5370   -6.5450   -4.1670 c3      1129 PE       0.039600
   6775 H11       -25.8870   -4.9050   -4.3970 hc      1130 PE      -0.019800
   6776 H12       -25.1670   -4.8750   -2.8570 hc      1130 PE      -0.019800
   6777 H21       -23.4370   -4.0850   -5.3570 hc      1130 PE      -0.019800
   6778 H22       -23.0870   -3.9450   -3.6270 hc      1130 PE      -0.019800
   6779 C1        -24.9270   -5.0850   -3.9070 c3      1130 PE       0.039600
   6780 C2        -23.8870   -3.9350   -4.3770 c3      1130 PE       0.039600
   6781 H11       -25.1670   -2.5550   -5.2170 hc      1131 PE      -0.019800
   6782 H12       -25.1970   -2.3950   -3.4670 hc      1131 PE      -0.019800
   6783 H21       -23.2770   -1.4750   -5.6970 hc      1131 PE      -0.019800
   6784 H22       -22.7170   -1.5350   -4.1270 hc      1131 PE      -0.019800
   6785 C1        -24.5370   -2.5950   -4.3170 c3      1131 PE       0.039600
   6786 C2        -23.6670   -1.4450   -4.6770 c3      1131 PE       0.039600
   6787 H11       -25.1870    0.0150   -4.8370 hc      1132 PE      -0.019800
   6788 H12       -24.3870   -0.1150   -3.2570 hc      1132 PE      -0.019800
   6789 H21       -22.9870    0.8350   -5.8370 hc      1132 PE      -0.019800
   6790 H22       -22.2370    0.9650   -4.2470 hc      1132 PE      -0.019800
   6791 C1        -24.2170   -0.0650   -4.3370 c3      1132 PE       0.039600
   6792 C2        -23.2070    0.9550   -4.7670 c3      1132 PE       0.039600
   6793 H11       -24.6270    2.5250   -5.0470 hc      1133 PE      -0.019800
   6794 H12       -24.0570    2.4850   -3.3470 hc      1133 PE      -0.019800
   6795 H21       -22.5870    3.4550   -5.8370 hc      1133 PE      -0.019800
   6796 H22       -21.7970    3.4350   -4.3270 hc      1133 PE      -0.019800
   6797 C1        -23.7570    2.3950   -4.3970 c3      1133 PE       0.039600
   6798 C2        -22.7970    3.5550   -4.7670 c3      1133 PE       0.039600
   6799 H11       -24.2870    5.0950   -4.6370 hc      1134 PE      -0.019800
   6800 H12       -23.2970    4.8350   -3.1870 hc      1134 PE      -0.019800
   6801 H21       -22.2070    5.9050   -5.8970 hc      1134 PE      -0.019800
   6802 H22       -21.3170    5.9750   -4.3970 hc      1134 PE      -0.019800
   6803 C1        -23.2670    4.8950   -4.2770 c3      1134 PE       0.039600
   6804 C2        -22.3370    6.0450   -4.8170 c3      1134 PE       0.039600
   6805 H11       -23.6770    7.6350   -5.2370 hc      1135 PE      -0.019800
   6806 H12       -23.3770    7.4650   -3.4770 hc      1135 PE      -0.019800
   6807 H21       -21.4870    8.5650   -5.6470 hc      1135 PE      -0.019800
   6808 H22       -20.9870    8.3450   -4.0470 hc      1135 PE      -0.019800
   6809 C1        -22.9070    7.4450   -4.4770 c3      1135 PE       0.039600
   6810 C2        -21.8970    8.5550   -4.6270 c3      1135 PE       0.039600
   6811 H11       -22.8270   10.3450   -5.2870 hc      1136 PE      -0.019800
   6812 H12       -23.0170   10.0350   -3.5670 hc      1136 PE      -0.019800
   6813 H21       -20.5070   11.1950   -4.8770 hc      1136 PE      -0.019800
   6814 H22       -20.4970   10.6350   -3.2870 hc      1136 PE      -0.019800
   6815 C1        -22.2770   10.0250   -4.3870 c3      1136 PE       0.039600
   6816 C2        -21.1770   11.0750   -4.0170 c3      1136 PE       0.039600
   6817 H11       -22.1670   12.1150   -2.4870 hc      1137 PE      -0.019800
   6818 H12       -20.9670   13.1450   -3.3270 hc      1137 PE      -0.019800
   6819 H21       -23.2670   13.8850   -3.7270 hc      1137 PE      -0.019800
   6820 H22       -23.8170   12.3350   -4.3270 hc      1137 PE      -0.019800
   6821 C1        -21.7470   12.3850   -3.4570 c3      1137 PE       0.039600
   6822 C2        -22.9570   13.0150   -4.3170 c3      1137 PE       0.039600
   6823 H11       -21.7170   14.0450   -5.7070 hc      1138 PE      -0.019800
   6824 H12       -22.7670   12.7550   -6.4070 hc      1138 PE      -0.019800
   6825 H21       -23.9970   15.3850   -5.2170 hc      1138 PE      -0.019800
   6826 H22       -24.7670   14.1250   -6.1070 hc      1138 PE      -0.019800
   6827 C1        -22.6970   13.5550   -5.6570 c3      1138 PE       0.039600
   6828 C2        -23.8170   14.6550   -6.0170 c3      1138 PE       0.039600
   6829 H11       -22.4870   15.7050   -7.4470 hc      1139 PE      -0.019800
   6830 H12       -23.4770   14.5150   -8.2070 hc      1139 PE      -0.019800
   6831 H21       -24.1570   17.2550   -7.0270 hc      1139 PE      -0.019800
   6832 H22       -25.5370   16.1850   -7.4070 hc      1139 PE      -0.019800
   6833 C1        -23.4970   15.2750   -7.4070 c3      1139 PE       0.039600
   6834 C2        -24.5070   16.4550   -7.6870 c3      1139 PE       0.039600
   6835 H11       -23.4570   17.1950   -9.4070 hc      1140 PE      -0.019800
   6836 H12       -24.7070   15.9950   -9.8570 hc      1140 PE      -0.019800
   6837 H21       -25.3670   18.5750   -8.6770 hc      1140 PE      -0.019800
   6838 H22       -26.5170   17.5350   -9.5370 hc      1140 PE      -0.019800
   6839 C1        -24.4770   16.8450   -9.2070 c3      1140 PE       0.039600
   6840 C2        -25.4970   17.9350   -9.5670 c3      1140 PE       0.039600
   6841 H11       -31.4670   28.6750    3.8430 hc      1141 PE      -0.019800
   6842 H12       -32.2370   29.6150    5.1430 hc      1141 PE      -0.019800
   6843 H21       -33.4970   27.3750    4.7230 hc      1141 PE      -0.019800
   6844 H22       -33.7370   27.9450    3.0430 hc      1141 PE      -0.019800
   6845 C1        -32.3770   29.2150    4.1330 c3      1141 PE       0.039600
   6846 C2        -33.6370   28.2650    4.0930 c3      1141 PE       0.039600
   6847 H11       -34.6670   30.1150    4.8330 hc      1142 PE      -0.019800
   6848 H12       -35.5770   29.1550    3.7130 hc      1142 PE      -0.019800
   6849 H21       -35.1570   28.3950    6.6030 hc      1142 PE      -0.019800
   6850 H22       -35.7370   27.2950    5.3730 hc      1142 PE      -0.019800
   6851 C1        -34.9070   29.0750    4.5830 c3      1142 PE       0.039600
   6852 C2        -35.7070   28.3550    5.6530 c3      1142 PE       0.039600
   6853 H11       -37.0870   29.9950    6.2430 hc      1143 PE      -0.019800
   6854 H12       -37.8270   28.7850    5.2630 hc      1143 PE      -0.019800
   6855 H21       -37.1770   28.2850    8.1430 hc      1143 PE      -0.019800
   6856 H22       -37.7970   27.0650    7.0830 hc      1143 PE      -0.019800
   6857 C1        -37.0570   28.9250    6.0330 c3      1143 PE       0.039600
   6858 C2        -37.7670   28.1550    7.2330 c3      1143 PE       0.039600
   6859 H11       -39.7870   28.5750    6.4730 hc      1144 PE      -0.019800
   6860 H12       -39.8070   27.7850    8.0230 hc      1144 PE      -0.019800
   6861 H21       -38.8770   30.7050    7.4130 hc      1144 PE      -0.019800
   6862 H22       -38.8970   29.9150    9.0630 hc      1144 PE      -0.019800
   6863 C1        -39.2770   28.5650    7.4530 c3      1144 PE       0.039600
   6864 C2        -39.3470   29.9550    8.0630 c3      1144 PE       0.039600
   6865 H11        38.7730   30.6650    7.2630 hc      1145 PE      -0.019800
   6866 H12        38.5930   29.6850    8.6630 hc      1145 PE      -0.019800
   6867 H21        39.7030   32.5650    8.5630 hc      1145 PE      -0.019800
   6868 H22        39.6330   31.6950   10.0830 hc      1145 PE      -0.019800
   6869 C1         39.2330   30.4750    8.2430 c3      1145 PE       0.039600
   6870 C2         39.1630   31.7850    9.1030 c3      1145 PE       0.039600
   6871 H11        37.1830   31.4450    9.7830 hc      1146 PE      -0.019800
   6872 H12        37.7230   32.9650   10.2830 hc      1146 PE      -0.019800
   6873 H21        37.1730   32.4550    7.3330 hc      1146 PE      -0.019800
   6874 H22        37.6530   33.9550    7.9930 hc      1146 PE      -0.019800
   6875 C1         37.7530   32.3050    9.4030 c3      1146 PE       0.039600
   6876 C2         37.0630   33.0650    8.2330 c3      1146 PE       0.039600
   6877 H11        35.0230   32.7350    7.7330 hc      1147 PE      -0.019800
   6878 H12        35.3330   32.8750    9.5130 hc      1147 PE      -0.019800
   6879 H21        35.6030   35.2950    7.7430 hc      1147 PE      -0.019800
   6880 H22        35.8230   35.1950    9.5430 hc      1147 PE      -0.019800
   6881 C1         35.5530   33.2850    8.5230 c3      1147 PE       0.039600
   6882 C2         35.2630   34.8250    8.6730 c3      1147 PE       0.039600
   6883 H11        33.3730   34.6650    7.7730 hc      1148 PE      -0.019800
   6884 H12        33.3630   34.7350    9.5930 hc      1148 PE      -0.019800
   6885 H21        33.9530   37.1150    7.7130 hc      1148 PE      -0.019800
   6886 H22        33.7630   37.4150    9.3930 hc      1148 PE      -0.019800
   6887 C1         33.7730   35.1650    8.6730 c3      1148 PE       0.039600
   6888 C2         33.4430   36.7250    8.6030 c3      1148 PE       0.039600
   6889 H11        31.6630   36.5250    7.5130 hc      1149 PE      -0.019800
   6890 H12        31.4630   36.4450    9.3230 hc      1149 PE      -0.019800
   6891 H21        32.3230   38.9050    7.8730 hc      1149 PE      -0.019800
   6892 H22        31.9330   38.7750    9.6630 hc      1149 PE      -0.019800
   6893 C1         31.9430   36.9650    8.4830 c3      1149 PE       0.039600
   6894 C2         31.6630   38.4950    8.6430 c3      1149 PE       0.039600
   6895 H11        29.9230   38.3350    7.2930 hc      1150 PE      -0.019800
   6896 H12        29.5130   38.3350    8.9930 hc      1150 PE      -0.019800
   6897 H21        30.5230   40.7550    7.2830 hc      1150 PE      -0.019800
   6898 H22        30.0430   40.8450    8.9930 hc      1150 PE      -0.019800
   6899 C1         30.2030   38.7650    8.2630 c3      1150 PE       0.039600
   6900 C2         29.9030   40.2850    8.0530 c3      1150 PE       0.039600
   6901 H11        27.7230  -40.2050    7.9830 hc      1151 PE      -0.019800
   6902 H12        28.1730  -38.5150    8.0130 hc      1151 PE      -0.019800
   6903 H21        28.8230  -40.4250    5.6430 hc      1151 PE      -0.019800
   6904 H22        28.5830  -38.6250    5.6130 hc      1151 PE      -0.019800
   6905 C1         28.4330  -39.4750    7.5630 c3      1151 PE       0.039600
   6906 C2         28.2230  -39.5850    6.0130 c3      1151 PE       0.039600
   6907 H11        26.4430  -40.7350    5.8430 hc      1152 PE      -0.019800
   6908 H12        26.2430  -38.9350    5.9630 hc      1152 PE      -0.019800
   6909 H21        27.1230  -38.6850    3.5730 hc      1152 PE      -0.019800
   6910 H22        25.5730  -39.5550    3.7130 hc      1152 PE      -0.019800
   6911 C1         26.7930  -39.7650    5.4930 c3      1152 PE       0.039600
   6912 C2         26.6530  -39.6250    3.8930 c3      1152 PE       0.039600
   6913 H11        28.2630   39.1050    3.0630 hc      1153 PE      -0.019800
   6914 H12        26.8230   38.2150    3.7630 hc      1153 PE      -0.019800
   6915 H21        27.0830   39.7550    1.1130 hc      1153 PE      -0.019800
   6916 H22        25.5530   39.2950    1.7630 hc      1153 PE      -0.019800
   6917 C1         27.1730   39.0850    3.1930 c3      1153 PE       0.039600
   6918 C2         26.6130   39.0150    1.7730 c3      1153 PE       0.039600
   6919 H11        26.6930   36.7250    1.8630 hc      1154 PE      -0.019800
   6920 H12        26.2930   37.4650    0.2430 hc      1154 PE      -0.019800
   6921 H21        29.0430   37.8350    1.3930 hc      1154 PE      -0.019800
   6922 H22        28.6530   37.7150   -0.2570 hc      1154 PE      -0.019800
   6923 C1         26.8930   37.5350    1.1530 c3      1154 PE       0.039600
   6924 C2         28.3530   37.3050    0.7130 c3      1154 PE       0.039600
   6925 H11        28.3930   35.4150    1.5030 hc      1155 PE      -0.019800
   6926 H12        28.0430   35.3150   -0.1670 hc      1155 PE      -0.019800
   6927 H21        30.8830   35.9950    0.8330 hc      1155 PE      -0.019800
   6928 H22        30.3630   36.0050   -0.8570 hc      1155 PE      -0.019800
   6929 C1         28.7330   35.8150    0.5330 c3      1155 PE       0.039600
   6930 C2         30.2030   35.5250    0.1230 c3      1155 PE       0.039600
   6931 H11        30.2030   33.6050    1.0830 hc      1156 PE      -0.019800
   6932 H12        29.9830   33.4950   -0.7370 hc      1156 PE      -0.019800
   6933 H21        32.5530   34.3050    0.6630 hc      1156 PE      -0.019800
   6934 H22        32.2830   33.9250   -0.9770 hc      1156 PE      -0.019800
   6935 C1         30.4830   34.0050    0.1030 c3      1156 PE       0.039600
   6936 C2         31.9330   33.6550    0.0330 c3      1156 PE       0.039600
   6937 H11        31.9530   31.8250    1.1830 hc      1157 PE      -0.019800
   6938 H12        31.5630   31.6050   -0.5470 hc      1157 PE      -0.019800
   6939 H21        34.3030   32.1950    0.9330 hc      1157 PE      -0.019800
   6940 H22        34.2030   31.7250   -0.8170 hc      1157 PE      -0.019800
   6941 C1         32.2230   32.1150    0.1630 c3      1157 PE       0.039600
   6942 C2         33.7030   31.7050    0.1630 c3      1157 PE       0.039600
   6943 H11        33.6930   30.0550    1.6630 hc      1158 PE      -0.019800
   6944 H12        32.9430   29.6050    0.1230 hc      1158 PE      -0.019800
   6945 H21        35.9030   30.0850    0.7730 hc      1158 PE      -0.019800
   6946 H22        35.2730   29.7450   -0.8570 hc      1158 PE      -0.019800
   6947 C1         33.7630   30.1750    0.5730 c3      1158 PE       0.039600
   6948 C2         35.0930   29.5950    0.2130 c3      1158 PE       0.039600
   6949 H11        35.0330   27.7550    1.3830 hc      1159 PE      -0.019800
   6950 H12        34.4430   27.6150   -0.2570 hc      1159 PE      -0.019800
   6951 H21        37.3930   27.9950    0.4930 hc      1159 PE      -0.019800
   6952 H22        36.7230   27.8950   -1.1970 hc      1159 PE      -0.019800
   6953 C1         35.2430   28.0650    0.3530 c3      1159 PE       0.039600
   6954 C2         36.6330   27.5550   -0.1670 c3      1159 PE       0.039600
   6955 H11        36.4830   25.7650    0.9630 hc      1160 PE      -0.019800
   6956 H12        36.1130   25.4850   -0.7270 hc      1160 PE      -0.019800
   6957 H21        38.9630   25.9750    0.3430 hc      1160 PE      -0.019800
   6958 H22        38.5430   25.8950   -1.3170 hc      1160 PE      -0.019800
   6959 C1         36.7930   26.0150   -0.0570 c3      1160 PE       0.039600
   6960 C2         38.2630   25.4850   -0.3370 c3      1160 PE       0.039600
   6961 H11        38.2630   23.6450    0.8930 hc      1161 PE      -0.019800
   6962 H12        37.6830   23.3450   -0.6770 hc      1161 PE      -0.019800
   6963 H21        40.4830   24.2750   -0.2170 hc      1161 PE      -0.019800
   6964 H22        39.8730   23.6050   -1.7170 hc      1161 PE      -0.019800
   6965 C1         38.4030   23.9650   -0.1470 c3      1161 PE       0.039600
   6966 C2         39.7930   23.5350   -0.6270 c3      1161 PE       0.039600
   6967 H11       -39.7270   22.1150    0.9830 hc      1162 PE      -0.019800
   6968 H12       -40.3870   21.3350   -0.4770 hc      1162 PE      -0.019800
   6969 H21       -37.6570   22.5750   -0.2170 hc      1162 PE      -0.019800
   6970 H22       -38.3470   21.8650   -1.7970 hc      1162 PE      -0.019800
   6971 C1        -39.7470   22.1550   -0.1170 c3      1162 PE       0.039600
   6972 C2        -38.3070   21.8350   -0.6970 c3      1162 PE       0.039600
   6973 H11       -37.6870   20.5050    0.8830 hc      1163 PE      -0.019800
   6974 H12       -38.6170   19.7150   -0.3670 hc      1163 PE      -0.019800
   6975 H21       -35.8170   20.6850   -1.0470 hc      1163 PE      -0.019800
   6976 H22       -36.9270   19.8850   -2.0270 hc      1163 PE      -0.019800
   6977 C1        -37.8170   20.4450   -0.2070 c3      1163 PE       0.039600
   6978 C2        -36.5870   19.9050   -0.9870 c3      1163 PE       0.039600
   6979 H11       -36.0170   18.7350    0.6830 hc      1164 PE      -0.019800
   6980 H12       -36.8770   17.8350   -0.5270 hc      1164 PE      -0.019800
   6981 H21       -34.7170   18.0550   -1.9470 hc      1164 PE      -0.019800
   6982 H22       -34.4570   17.1450   -0.5270 hc      1164 PE      -0.019800
   6983 C1        -36.0870   18.5750   -0.4070 c3      1164 PE       0.039600
   6984 C2        -34.6770   18.1750   -0.8570 c3      1164 PE       0.039600
   6985 H11       -33.7170   19.9350   -1.4570 hc      1165 PE      -0.019800
   6986 H12       -33.8370   19.7250    0.3730 hc      1165 PE      -0.019800
   6987 H21       -32.0770   17.9350   -1.3570 hc      1165 PE      -0.019800
   6988 H22       -31.9370   18.2650    0.3430 hc      1165 PE      -0.019800
   6989 C1        -33.6170   19.2550   -0.5970 c3      1165 PE       0.039600
   6990 C2        -32.1470   18.7450   -0.6170 c3      1165 PE       0.039600
   6991 H11       -31.0370   20.0050   -1.9370 hc      1166 PE      -0.019800
   6992 H12       -31.2870   20.8050   -0.3270 hc      1166 PE      -0.019800
   6993 H21       -29.4170   18.6350   -1.0470 hc      1166 PE      -0.019800
   6994 H22       -29.7970   19.2350    0.6530 hc      1166 PE      -0.019800
   6995 C1        -31.0670   19.8650   -0.8470 c3      1166 PE       0.039600
   6996 C2        -29.7170   19.4750   -0.4070 c3      1166 PE       0.039600
   6997 H11       -27.6570   20.1350   -0.5670 hc      1167 PE      -0.019800
   6998 H12       -28.8270   21.0550   -1.6070 hc      1167 PE      -0.019800
   6999 H21       -28.4770   21.3250    1.3830 hc      1167 PE      -0.019800
   7000 H22       -29.6870   22.2550    0.3530 hc      1167 PE      -0.019800
   7001 C1        -28.6470   20.5950   -0.6270 c3      1167 PE       0.039600
   7002 C2        -28.7070   21.7650    0.4030 c3      1167 PE       0.039600
   7003 H11       -27.3470   23.2950    1.1530 hc      1168 PE      -0.019800
   7004 H12       -26.6270   22.2250    0.0830 hc      1168 PE      -0.019800
   7005 H21       -27.5470   23.3450   -1.8470 hc      1168 PE      -0.019800
   7006 H22       -27.0470   24.6250   -0.5670 hc      1168 PE      -0.019800
   7007 C1        -27.5570   22.7850    0.2130 c3      1168 PE       0.039600
   7008 C2        -27.7170   23.8150   -0.8670 c3      1168 PE       0.039600
   7009 H11       -28.9470   25.0350   -1.8870 hc      1169 PE      -0.019800
   7010 H12       -29.8670   23.6950   -1.2170 hc      1169 PE      -0.019800
   7011 H21       -28.5370   26.0750    0.2230 hc      1169 PE      -0.019800
   7012 H22       -29.6170   24.7850    1.0530 hc      1169 PE      -0.019800
   7013 C1        -29.0970   24.4350   -0.9770 c3      1169 PE       0.039600
   7014 C2        -29.3970   25.3950    0.1730 c3      1169 PE       0.039600
   7015 H11       -30.8570   27.0850    0.6930 hc      1170 PE      -0.019800
   7016 H12       -30.4870   27.0550   -0.9970 hc      1170 PE      -0.019800
   7017 H21       -32.7870   26.3950   -0.5270 hc      1170 PE      -0.019800
   7018 H22       -31.8970   25.0350   -1.1870 hc      1170 PE      -0.019800
   7019 C1        -30.6270   26.3950   -0.1270 c3      1170 PE       0.039600
   7020 C2        -31.9870   25.6750   -0.2970 c3      1170 PE       0.039600
   7021 H11        28.7130  -15.7950    7.5330 hc      1171 PE      -0.019800
   7022 H12        29.6030  -15.3150    8.8830 hc      1171 PE      -0.019800
   7023 H21        27.4430  -14.2850    8.9530 hc      1171 PE      -0.019800
   7024 H22        27.3730  -15.4850   10.2530 hc      1171 PE      -0.019800
   7025 C1         28.7130  -15.8950    8.6230 c3      1171 PE       0.039600
   7026 C2         27.4430  -15.3650    9.1630 c3      1171 PE       0.039600
   7027 H11        26.4530  -16.1550    7.4530 hc      1172 PE      -0.019800
   7028 H12        26.4430  -17.1850    8.8830 hc      1172 PE      -0.019800
   7029 H21        24.8130  -14.5650    8.6630 hc      1172 PE      -0.019800
   7030 H22        24.7330  -15.8250    9.9830 hc      1172 PE      -0.019800
   7031 C1         26.3030  -16.1550    8.5330 c3      1172 PE       0.039600
   7032 C2         24.8830  -15.6250    8.9130 c3      1172 PE       0.039600
   7033 H11        23.6930  -15.8950    7.0930 hc      1173 PE      -0.019800
   7034 H12        24.1330  -17.4050    7.7230 hc      1173 PE      -0.019800
   7035 H21        22.1230  -15.6550    9.2230 hc      1173 PE      -0.019800
   7036 H22        22.3730  -17.3650    9.4630 hc      1173 PE      -0.019800
   7037 C1         23.8230  -16.4050    8.0530 c3      1173 PE       0.039600
   7038 C2         22.3930  -16.5750    8.7030 c3      1173 PE       0.039600
   7039 H11        21.0030  -16.1450    6.9430 hc      1174 PE      -0.019800
   7040 H12        21.4630  -17.8450    7.1130 hc      1174 PE      -0.019800
   7041 H21        19.5930  -16.3150    9.1130 hc      1174 PE      -0.019800
   7042 H22        20.1430  -18.0350    9.1330 hc      1174 PE      -0.019800
   7043 C1         21.2430  -16.9350    7.6730 c3      1174 PE       0.039600
   7044 C2         19.9630  -17.1550    8.5130 c3      1174 PE       0.039600
   7045 H11        18.3530  -16.7650    6.8430 hc      1175 PE      -0.019800
   7046 H12        18.7430  -18.5050    7.3330 hc      1175 PE      -0.019800
   7047 H21        17.0330  -16.2950    8.5330 hc      1175 PE      -0.019800
   7048 H22        17.5330  -17.6150    9.5630 hc      1175 PE      -0.019800
   7049 C1         18.5830  -17.4650    7.6530 c3      1175 PE       0.039600
   7050 C2         17.3130  -17.3550    8.5130 c3      1175 PE       0.039600
   7051 H11        16.1230  -17.9450    6.9030 hc      1176 PE      -0.019800
   7052 H12        16.5430  -19.2850    8.0030 hc      1176 PE      -0.019800
   7053 H21        14.6630  -16.8350    8.8930 hc      1176 PE      -0.019800
   7054 H22        14.9730  -18.4750    9.6330 hc      1176 PE      -0.019800
   7055 C1         16.2230  -18.2350    7.9530 c3      1176 PE       0.039600
   7056 C2         14.8630  -17.9050    8.7130 c3      1176 PE       0.039600
   7057 H11        13.5830  -17.8750    6.9730 hc      1177 PE      -0.019800
   7058 H12        13.7730  -19.5150    7.6330 hc      1177 PE      -0.019800
   7059 H21        12.1830  -17.3050    8.9430 hc      1177 PE      -0.019800
   7060 H22        12.3630  -18.8450    9.6330 hc      1177 PE      -0.019800
   7061 C1         13.6530  -18.4550    7.8930 c3      1177 PE       0.039600
   7062 C2         12.3130  -18.3550    8.6530 c3      1177 PE       0.039600
   7063 H11        11.1330  -18.0950    6.9930 hc      1178 PE      -0.019800
   7064 H12        11.2130  -19.7750    7.3130 hc      1178 PE      -0.019800
   7065 H21         9.7430  -17.6750    9.0430 hc      1178 PE      -0.019800
   7066 H22         9.8330  -19.4350    9.4630 hc      1178 PE      -0.019800
   7067 C1         11.1330  -18.8050    7.8230 c3      1178 PE       0.039600
   7068 C2          9.7830  -18.6950    8.6530 c3      1178 PE       0.039600
   7069 H11         8.4830  -18.1150    7.0830 hc      1179 PE      -0.019800
   7070 H12         8.8530  -19.8750    7.1030 hc      1179 PE      -0.019800
   7071 H21         7.0130  -18.2750    8.9630 hc      1179 PE      -0.019800
   7072 H22         7.4130  -19.9050    9.2930 hc      1179 PE      -0.019800
   7073 C1          8.6030  -19.0050    7.7230 c3      1179 PE       0.039600
   7074 C2          7.2430  -19.2150    8.4530 c3      1179 PE       0.039600
   7075 H11         5.8530  -18.6350    6.9630 hc      1180 PE      -0.019800
   7076 H12         6.2630  -20.4250    6.9630 hc      1180 PE      -0.019800
   7077 H21         4.8530  -19.1850    9.3930 hc      1180 PE      -0.019800
   7078 H22         5.0330  -20.8250    8.9830 hc      1180 PE      -0.019800
   7079 C1          6.0430  -19.5350    7.5730 c3      1180 PE       0.039600
   7080 C2          4.8430  -19.8550    8.5230 c3      1180 PE       0.039600
   7081 H11         3.3030  -19.0650    7.0930 hc      1181 PE      -0.019800
   7082 H12         3.3330  -20.7650    7.0330 hc      1181 PE      -0.019800
   7083 H21         2.4830  -19.0750    9.5930 hc      1181 PE      -0.019800
   7084 H22         2.1230  -20.8250    9.2530 hc      1181 PE      -0.019800
   7085 C1          3.4030  -19.9450    7.7530 c3      1181 PE       0.039600
   7086 C2          2.2630  -19.8250    8.8230 c3      1181 PE       0.039600
   7087 H11         1.0430  -18.3250    7.9530 hc      1182 PE      -0.019800
   7088 H12         0.9030  -19.9950    7.2630 hc      1182 PE      -0.019800
   7089 H21        -0.4670  -19.1350    9.9530 hc      1182 PE      -0.019800
   7090 H22        -0.1970  -20.7750    9.3530 hc      1182 PE      -0.019800
   7091 C1          0.9530  -19.3950    8.1830 c3      1182 PE       0.039600
   7092 C2         -0.3870  -19.7350    9.0430 c3      1182 PE       0.039600
   7093 H11        -1.8370  -18.5350    7.9030 hc      1183 PE      -0.019800
   7094 H12        -1.5070  -20.1750    7.3530 hc      1183 PE      -0.019800
   7095 H21        -3.1170  -19.4350    9.8630 hc      1183 PE      -0.019800
   7096 H22        -2.7370  -21.0550    9.4030 hc      1183 PE      -0.019800
   7097 C1         -1.6670  -19.5650    8.2530 c3      1183 PE       0.039600
   7098 C2         -2.9570  -20.0650    8.9830 c3      1183 PE       0.039600
   7099 H11        -4.0770  -21.0550    7.5830 hc      1184 PE      -0.019800
   7100 H12        -5.1070  -20.2050    8.7630 hc      1184 PE      -0.019800
   7101 H21        -3.9170  -19.2950    6.1830 hc      1184 PE      -0.019800
   7102 H22        -4.0670  -18.0350    7.4030 hc      1184 PE      -0.019800
   7103 C1         -4.2170  -20.1050    8.1130 c3      1184 PE       0.039600
   7104 C2         -4.4970  -18.9850    7.0630 c3      1184 PE       0.039600
   7105 H11        -6.0870  -19.9650    6.1530 hc      1185 PE      -0.019800
   7106 H12        -6.7670  -18.6650    7.1130 hc      1185 PE      -0.019800
   7107 H21        -5.0470  -18.1450    4.5430 hc      1185 PE      -0.019800
   7108 H22        -5.7870  -16.9650    5.5130 hc      1185 PE      -0.019800
   7109 C1         -5.9470  -18.9150    6.4230 c3      1185 PE       0.039600
   7110 C2         -5.9170  -18.0050    5.1930 c3      1185 PE       0.039600
   7111 H11        -7.4570  -19.0150    3.9330 hc      1186 PE      -0.019800
   7112 H12        -8.0070  -17.6750    4.8930 hc      1186 PE      -0.019800
   7113 H21        -6.1170  -17.3350    2.4730 hc      1186 PE      -0.019800
   7114 H22        -7.0070  -16.1850    3.4430 hc      1186 PE      -0.019800
   7115 C1         -7.1570  -18.0250    4.2830 c3      1186 PE       0.039600
   7116 C2         -7.0470  -17.2050    3.0530 c3      1186 PE       0.039600
   7117 H11        -8.5970  -18.0250    1.7930 hc      1187 PE      -0.019800
   7118 H12        -9.1270  -16.5650    2.6730 hc      1187 PE      -0.019800
   7119 H21        -6.8470  -16.4250    0.6930 hc      1187 PE      -0.019800
   7120 H22        -7.8570  -15.1050    1.3430 hc      1187 PE      -0.019800
   7121 C1         -8.2870  -17.0350    2.1330 c3      1187 PE       0.039600
   7122 C2         -7.8770  -16.1350    0.9630 c3      1187 PE       0.039600
   7123 H11        -8.8070  -17.1450   -0.6870 hc      1188 PE      -0.019800
   7124 H12        -9.8370  -15.8850    0.0630 hc      1188 PE      -0.019800
   7125 H21        -9.1170  -14.1950   -1.3370 hc      1188 PE      -0.019800
   7126 H22        -8.8270  -15.6850   -2.2870 hc      1188 PE      -0.019800
   7127 C1         -8.8270  -16.1250   -0.2770 c3      1188 PE       0.039600
   7128 C2         -8.5270  -15.1150   -1.3970 c3      1188 PE       0.039600
   7129 H11        -6.9170  -14.0350   -0.5970 hc      1189 PE      -0.019800
   7130 H12        -6.4370  -15.5150   -1.3870 hc      1189 PE      -0.019800
   7131 H21        -7.3470  -12.9350   -2.9270 hc      1189 PE      -0.019800
   7132 H22        -7.0370  -14.4550   -3.7270 hc      1189 PE      -0.019800
   7133 C1         -7.1270  -14.6650   -1.4670 c3      1189 PE       0.039600
   7134 C2         -6.8070  -13.8850   -2.8170 c3      1189 PE       0.039600
   7135 H11        -4.8270  -13.5150   -1.9670 hc      1190 PE      -0.019800
   7136 H12        -4.9370  -14.5850   -3.4270 hc      1190 PE      -0.019800
   7137 H21        -4.8570  -11.6250   -3.1670 hc      1190 PE      -0.019800
   7138 H22        -5.5270  -12.3250   -4.5370 hc      1190 PE      -0.019800
   7139 C1         -5.3270  -13.6850   -2.9370 c3      1190 PE       0.039600
   7140 C2         -4.7470  -12.5250   -3.7970 c3      1190 PE       0.039600
   7141 H11        -3.2270  -13.7650   -4.7070 hc      1191 PE      -0.019800
   7142 H12        -3.2370  -12.2050   -5.4170 hc      1191 PE      -0.019800
   7143 H21        -2.0670  -13.0050   -2.5470 hc      1191 PE      -0.019800
   7144 H22        -2.0970  -11.3450   -3.0970 hc      1191 PE      -0.019800
   7145 C1         -3.3170  -12.7050   -4.4470 c3      1191 PE       0.039600
   7146 C2         -2.0870  -12.3850   -3.4470 c3      1191 PE       0.039600
   7147 H11        -0.4570  -13.5350   -4.3570 hc      1192 PE      -0.019800
   7148 H12        -0.8570  -11.9450   -5.1670 hc      1192 PE      -0.019800
   7149 H21         0.6630  -12.5050   -2.6270 hc      1192 PE      -0.019800
   7150 H22         0.2730  -10.8350   -3.2170 hc      1192 PE      -0.019800
   7151 C1         -0.7170  -12.4750   -4.2170 c3      1192 PE       0.039600
   7152 C2          0.4630  -11.8750   -3.4970 c3      1192 PE       0.039600
   7153 H11         1.8430  -12.9050   -4.7770 hc      1193 PE      -0.019800
   7154 H12         1.6030  -11.2150   -5.1270 hc      1193 PE      -0.019800
   7155 H21         3.0430  -12.1950   -2.5270 hc      1193 PE      -0.019800
   7156 H22         3.0130  -10.5550   -2.9670 hc      1193 PE      -0.019800
   7157 C1          1.7530  -11.9250   -4.2970 c3      1193 PE       0.039600
   7158 C2          2.9730  -11.5550   -3.4070 c3      1193 PE       0.039600
   7159 H11         4.2530  -12.9450   -4.4970 hc      1194 PE      -0.019800
   7160 H12         4.3130  -11.3250   -5.1370 hc      1194 PE      -0.019800
   7161 H21         5.4930  -12.1250   -2.4970 hc      1194 PE      -0.019800
   7162 H22         5.6030  -10.4450   -3.1070 hc      1194 PE      -0.019800
   7163 C1          4.3230  -11.8850   -4.1970 c3      1194 PE       0.039600
   7164 C2          5.5830  -11.5050   -3.3970 c3      1194 PE       0.039600
   7165 H11         6.7930  -12.7750   -4.5370 hc      1195 PE      -0.019800
   7166 H12         6.9030  -11.1050   -5.0770 hc      1195 PE      -0.019800
   7167 H21         8.2830  -11.8150   -2.4470 hc      1195 PE      -0.019800
   7168 H22         7.8630  -10.3150   -3.0270 hc      1195 PE      -0.019800
   7169 C1          6.8630  -11.7450   -4.1870 c3      1195 PE       0.039600
   7170 C2          8.1130  -11.3150   -3.4070 c3      1195 PE       0.039600
   7171 H11         9.5730  -12.3150   -4.7370 hc      1196 PE      -0.019800
   7172 H12         9.3230  -10.6450   -5.1070 hc      1196 PE      -0.019800
   7173 H21        10.6830  -11.6150   -2.6270 hc      1196 PE      -0.019800
   7174 H22        10.4030   -9.8550   -2.9870 hc      1196 PE      -0.019800
   7175 C1          9.3730  -11.3450   -4.2670 c3      1196 PE       0.039600
   7176 C2         10.5530  -10.8550   -3.4070 c3      1196 PE       0.039600
   7177 H11        12.1630  -11.8850   -4.4470 hc      1197 PE      -0.019800
   7178 H12        11.7630  -10.2750   -5.0770 hc      1197 PE      -0.019800
   7179 H21        13.1430  -10.6950   -2.3270 hc      1197 PE      -0.019800
   7180 H22        13.0530   -9.2450   -3.2770 hc      1197 PE      -0.019800
   7181 C1         11.8630  -10.8750   -4.1670 c3      1197 PE       0.039600
   7182 C2         13.1330  -10.3350   -3.3570 c3      1197 PE       0.039600
   7183 H11        14.6930  -11.5950   -4.3670 hc      1198 PE      -0.019800
   7184 H12        14.5930  -10.0150   -5.0970 hc      1198 PE      -0.019800
   7185 H21        16.0230  -10.6850   -2.3570 hc      1198 PE      -0.019800
   7186 H22        15.4830   -9.0950   -2.7770 hc      1198 PE      -0.019800
   7187 C1         14.5230  -10.5350   -4.1370 c3      1198 PE       0.039600
   7188 C2         15.7430  -10.0650   -3.2170 c3      1198 PE       0.039600
   7189 H11        17.2530  -10.7250   -4.7570 hc      1199 PE      -0.019800
   7190 H12        16.8930   -9.0850   -4.8570 hc      1199 PE      -0.019800
   7191 H21        18.6430  -10.2350   -2.7370 hc      1199 PE      -0.019800
   7192 H22        18.1030   -8.6250   -2.6570 hc      1199 PE      -0.019800
   7193 C1         17.0430   -9.8650   -4.1070 c3      1199 PE       0.039600
   7194 C2         18.2830   -9.4150   -3.3870 c3      1199 PE       0.039600
   7195 H11        19.7630  -10.0350   -4.8070 hc      1200 PE      -0.019800
   7196 H12        19.4430   -8.3150   -4.9170 hc      1200 PE      -0.019800
   7197 H21        20.7430   -9.5250   -2.4670 hc      1200 PE      -0.019800
   7198 H22        21.5830   -9.0650   -3.9470 hc      1200 PE      -0.019800
   7199 C1         19.5730   -9.1350   -4.2070 c3      1200 PE       0.039600
   7200 C2         20.7430   -8.8050   -3.2970 c3      1200 PE       0.039600
   7201 H11         0.4430    8.3450   -3.5670 hc      1201 PE      -0.019800
   7202 H12        -1.2070    9.1450   -3.9270 hc      1201 PE      -0.019800
   7203 H21        -0.8270    6.3250   -2.4770 hc      1201 PE      -0.019800
   7204 H22        -2.2770    6.7350   -3.3570 hc      1201 PE      -0.019800
   7205 C1         -0.6470    8.2450   -3.6470 c3      1201 PE       0.039600
   7206 C2         -1.4470    7.1750   -2.7870 c3      1201 PE       0.039600
   7207 H11        -1.3170    7.9950   -0.7370 hc      1202 PE      -0.019800
   7208 H12        -2.5870    8.7350   -1.7170 hc      1202 PE      -0.019800
   7209 H21        -3.5070    7.3850    0.1130 hc      1202 PE      -0.019800
   7210 H22        -2.7170    5.9850   -0.6570 hc      1202 PE      -0.019800
   7211 C1         -2.1070    7.7850   -1.4770 c3      1202 PE       0.039600
   7212 C2         -3.1570    6.9650   -0.8370 c3      1202 PE       0.039600
   7213 H11        -4.9070    7.8650   -1.4870 hc      1203 PE      -0.019800
   7214 H12        -4.2070    6.8550   -2.7270 hc      1203 PE      -0.019800
   7215 H21        -6.1070    5.9350   -0.4870 hc      1203 PE      -0.019800
   7216 H22        -4.7670    4.8650   -0.8870 hc      1203 PE      -0.019800
   7217 C1         -4.4570    6.8850   -1.6570 c3      1203 PE       0.039600
   7218 C2         -5.3970    5.6650   -1.2870 c3      1203 PE       0.039600
   7219 H11        -6.8070    5.6350   -3.0070 hc      1204 PE      -0.019800
   7220 H12        -5.4170    4.5050   -3.1170 hc      1204 PE      -0.019800
   7221 H21        -7.8970    4.1850   -1.2770 hc      1204 PE      -0.019800
   7222 H22        -6.5870    3.0850   -1.5070 hc      1204 PE      -0.019800
   7223 C1         -6.1470    4.9550   -2.4470 c3      1204 PE       0.039600
   7224 C2         -7.1970    3.8250   -2.0370 c3      1204 PE       0.039600
   7225 H11        -8.6970    3.8250   -3.6970 hc      1205 PE      -0.019800
   7226 H12        -7.3670    2.7050   -3.9970 hc      1205 PE      -0.019800
   7227 H21        -9.7770    2.4250   -2.1570 hc      1205 PE      -0.019800
   7228 H22        -8.2970    1.6150   -1.7070 hc      1205 PE      -0.019800
   7229 C1         -8.0070    3.1250   -3.2070 c3      1205 PE       0.039600
   7230 C2         -8.8470    2.0150   -2.5670 c3      1205 PE       0.039600
   7231 H11        -9.9170    1.1550   -4.3970 hc      1206 PE      -0.019800
   7232 H12        -8.2870    0.4650   -4.0970 hc      1206 PE      -0.019800
   7233 H21       -10.6170   -0.2350   -2.3170 hc      1206 PE      -0.019800
   7234 H22        -8.8870   -0.6550   -2.1670 hc      1206 PE      -0.019800
   7235 C1         -9.1970    0.8550   -3.6270 c3      1206 PE       0.039600
   7236 C2         -9.6870   -0.4050   -2.8770 c3      1206 PE       0.039600
   7237 H11       -10.4070   -1.2450   -4.7970 hc      1207 PE      -0.019800
   7238 H12        -8.8270   -1.8050   -4.3470 hc      1207 PE      -0.019800
   7239 H21       -11.3470   -2.7050   -3.0270 hc      1207 PE      -0.019800
   7240 H22        -9.6970   -3.2250   -2.6470 hc      1207 PE      -0.019800
   7241 C1         -9.8070   -1.5350   -3.9270 c3      1207 PE       0.039600
   7242 C2        -10.3470   -2.8750   -3.4570 c3      1207 PE       0.039600
   7243 H11       -11.3270   -3.8450   -5.2070 hc      1208 PE      -0.019800
   7244 H12        -9.5770   -3.8450   -5.2670 hc      1208 PE      -0.019800
   7245 H21       -11.3570   -5.4750   -3.2670 hc      1208 PE      -0.019800
   7246 H22        -9.6770   -5.5350   -3.2270 hc      1208 PE      -0.019800
   7247 C1        -10.4270   -3.9350   -4.5870 c3      1208 PE       0.039600
   7248 C2        -10.4970   -5.4150   -3.9470 c3      1208 PE       0.039600
   7249 H11       -11.1870   -6.3950   -5.7570 hc      1209 PE      -0.019800
   7250 H12        -9.5170   -6.6450   -5.4570 hc      1209 PE      -0.019800
   7251 H21       -11.9270   -8.0950   -4.1770 hc      1209 PE      -0.019800
   7252 H22       -10.6270   -7.7950   -3.0670 hc      1209 PE      -0.019800
   7253 C1        -10.4870   -6.5950   -4.9370 c3      1209 PE       0.039600
   7254 C2        -10.8470   -7.8750   -4.1370 c3      1209 PE       0.039600
   7255 H11       -10.0570   -9.1450   -5.8070 hc      1210 PE      -0.019800
   7256 H12        -9.0970   -9.2250   -4.3170 hc      1210 PE      -0.019800
   7257 H21       -10.4270  -11.4050   -4.6270 hc      1210 PE      -0.019800
   7258 H22       -11.9270  -10.4150   -4.5070 hc      1210 PE      -0.019800
   7259 C1        -10.1170   -9.1850   -4.7170 c3      1210 PE       0.039600
   7260 C2        -10.8570  -10.4650   -4.2470 c3      1210 PE       0.039600
   7261 H11       -11.5070   -9.7650   -2.3170 hc      1211 PE      -0.019800
   7262 H12       -11.5270  -11.5750   -2.4970 hc      1211 PE      -0.019800
   7263 H21        -9.2170   -9.7150   -2.1270 hc      1211 PE      -0.019800
   7264 H22        -9.0070  -11.3950   -2.5970 hc      1211 PE      -0.019800
   7265 C1        -10.9870  -10.6450   -2.7170 c3      1211 PE       0.039600
   7266 C2         -9.6370  -10.7150   -2.0070 c3      1211 PE       0.039600
   7267 H11       -10.5470  -10.5850   -0.0870 hc      1212 PE      -0.019800
   7268 H12       -10.3370  -12.2550   -0.6270 hc      1212 PE      -0.019800
   7269 H21        -8.0070  -10.4550    0.1730 hc      1212 PE      -0.019800
   7270 H22        -7.8370  -12.1450   -0.1970 hc      1212 PE      -0.019800
   7271 C1         -9.8470  -11.2650   -0.5870 c3      1212 PE       0.039600
   7272 C2         -8.5570  -11.4050    0.1830 c3      1212 PE       0.039600
   7273 H11        -9.6070  -11.1850    1.9730 hc      1213 PE      -0.019800
   7274 H12        -9.4570  -12.8150    1.5130 hc      1213 PE      -0.019800
   7275 H21        -7.0670  -11.0950    2.1630 hc      1213 PE      -0.019800
   7276 H22        -6.9770  -12.8750    1.8430 hc      1213 PE      -0.019800
   7277 C1         -8.8870  -11.8850    1.5330 c3      1213 PE       0.039600
   7278 C2         -7.5370  -12.0750    2.3330 c3      1213 PE       0.039600
   7279 H11        -8.0570  -11.5150    4.3930 hc      1214 PE      -0.019800
   7280 H12        -8.7570  -12.9450    3.9530 hc      1214 PE      -0.019800
   7281 H21        -5.7870  -12.4050    4.3130 hc      1214 PE      -0.019800
   7282 H22        -6.2870  -14.0850    3.9730 hc      1214 PE      -0.019800
   7283 C1         -7.8070  -12.4150    3.8230 c3      1214 PE       0.039600
   7284 C2         -6.5870  -13.1350    4.4330 c3      1214 PE       0.039600
   7285 H11        -5.8970  -13.7950    6.3030 hc      1215 PE      -0.019800
   7286 H12        -6.9070  -12.3450    6.4130 hc      1215 PE      -0.019800
   7287 H21        -7.7670  -15.3050    5.8730 hc      1215 PE      -0.019800
   7288 H22        -8.9970  -14.0550    5.8830 hc      1215 PE      -0.019800
   7289 C1         -6.8370  -13.3450    5.9730 c3      1215 PE       0.039600
   7290 C2         -8.0270  -14.3350    6.3130 c3      1215 PE       0.039600
   7291 H11        -7.2670  -14.1950    8.4330 hc      1216 PE      -0.019800
   7292 H12        -8.8770  -13.8150    8.3730 hc      1216 PE      -0.019800
   7293 H21        -8.2770  -16.1150    9.3830 hc      1216 PE      -0.019800
   7294 H22        -7.8470  -16.7450    7.8530 hc      1216 PE      -0.019800
   7295 C1         -8.1770  -14.5150    7.8930 c3      1216 PE       0.039600
   7296 C2         -8.4770  -15.9750    8.3130 c3      1216 PE       0.039600
   7297 H11       -10.4970  -15.6350    8.7030 hc      1217 PE      -0.019800
   7298 H12       -10.2070  -16.4450    7.0530 hc      1217 PE      -0.019800
   7299 H21        -9.7870  -17.8450    9.6330 hc      1217 PE      -0.019800
   7300 H22        -9.9770  -18.5650    8.0430 hc      1217 PE      -0.019800
   7301 C1         -9.9370  -16.3750    8.1230 c3      1217 PE       0.039600
   7302 C2        -10.3670  -17.7850    8.7030 c3      1217 PE       0.039600
   7303 H11       -12.0270  -18.7650    9.6030 hc      1218 PE      -0.019800
   7304 H12       -12.1370  -17.0150    9.6130 hc      1218 PE      -0.019800
   7305 H21       -12.7470  -18.6850    7.0330 hc      1218 PE      -0.019800
   7306 H22       -12.4170  -17.0850    7.0630 hc      1218 PE      -0.019800
   7307 C1        -11.8970  -17.8750    8.9730 c3      1218 PE       0.039600
   7308 C2        -12.8170  -17.8450    7.7430 c3      1218 PE       0.039600
   7309 H11       -14.5470  -18.3050    9.0530 hc      1219 PE      -0.019800
   7310 H12       -14.2170  -16.6050    8.7630 hc      1219 PE      -0.019800
   7311 H21       -15.1970  -18.5950    6.5130 hc      1219 PE      -0.019800
   7312 H22       -14.7170  -16.9550    6.3030 hc      1219 PE      -0.019800
   7313 C1        -14.2170  -17.5950    8.2830 c3      1219 PE       0.039600
   7314 C2        -15.1870  -17.6350    7.0230 c3      1219 PE       0.039600
   7315 H11       -17.2170  -17.5750    7.8330 hc      1220 PE      -0.019800
   7316 H12       -16.4770  -16.0350    7.7830 hc      1220 PE      -0.019800
   7317 H21       -18.2670  -16.4550    6.0130 hc      1220 PE      -0.019800
   7318 H22       -17.3170  -17.7450    5.3130 hc      1220 PE      -0.019800
   7319 C1        -16.5670  -16.9650    7.1930 c3      1220 PE       0.039600
   7320 C2        -17.2370  -16.7550    5.7830 c3      1220 PE       0.039600
   7321 H11       -16.2370  -14.8250    5.5030 hc      1221 PE      -0.019800
   7322 H12       -15.5370  -16.1150    4.4930 hc      1221 PE      -0.019800
   7323 H21       -18.2070  -15.0950    3.5930 hc      1221 PE      -0.019800
   7324 H22       -16.9670  -15.8550    2.7030 hc      1221 PE      -0.019800
   7325 C1        -16.4770  -15.6950    4.8830 c3      1221 PE       0.039600
   7326 C2        -17.1170  -15.1850    3.5630 c3      1221 PE       0.039600
   7327 H11       -15.5270  -13.8650    2.8030 hc      1222 PE      -0.019800
   7328 H12       -17.0470  -13.5950    2.1030 hc      1222 PE      -0.019800
   7329 H21       -15.8970  -12.7850    4.7930 hc      1222 PE      -0.019800
   7330 H22       -17.6670  -12.7350    4.6930 hc      1222 PE      -0.019800
   7331 C1        -16.5870  -13.7950    3.0730 c3      1222 PE       0.039600
   7332 C2        -16.7470  -12.6850    4.1030 c3      1222 PE       0.039600
   7333 H11       -15.8770  -11.2350    2.7330 hc      1223 PE      -0.019800
   7334 H12       -17.5970  -11.2550    2.7430 hc      1223 PE      -0.019800
   7335 H21       -15.6970  -10.2350    4.9530 hc      1223 PE      -0.019800
   7336 H22       -17.4770   -9.9550    5.0430 hc      1223 PE      -0.019800
   7337 C1        -16.7270  -11.3150    3.4230 c3      1223 PE       0.039600
   7338 C2        -16.6170  -10.0750    4.3730 c3      1223 PE       0.039600
   7339 H11       -15.5570   -8.7750    2.9430 hc      1224 PE      -0.019800
   7340 H12       -17.3170   -8.5450    2.9530 hc      1224 PE      -0.019800
   7341 H21       -15.4670   -7.6850    5.2430 hc      1224 PE      -0.019800
   7342 H22       -17.2870   -7.4450    5.1130 hc      1224 PE      -0.019800
   7343 C1        -16.4370   -8.7050    3.5830 c3      1224 PE       0.039600
   7344 C2        -16.3270   -7.5750    4.5830 c3      1224 PE       0.039600
   7345 H11       -15.4270   -6.2850    2.9830 hc      1225 PE      -0.019800
   7346 H12       -17.1770   -6.0150    3.2030 hc      1225 PE      -0.019800
   7347 H21       -15.2070   -4.9850    5.2230 hc      1225 PE      -0.019800
   7348 H22       -16.9770   -5.1250    5.3930 hc      1225 PE      -0.019800
   7349 C1        -16.2370   -6.2150    3.7230 c3      1225 PE       0.039600
   7350 C2        -16.1570   -5.0250    4.6730 c3      1225 PE       0.039600
   7351 H11       -15.3570   -3.7150    3.1430 hc      1226 PE      -0.019800
   7352 H12       -17.0870   -3.6550    3.1330 hc      1226 PE      -0.019800
   7353 H21       -15.1970   -2.4750    5.3330 hc      1226 PE      -0.019800
   7354 H22       -16.8470   -2.6050    5.5930 hc      1226 PE      -0.019800
   7355 C1        -16.2270   -3.7450    3.8130 c3      1226 PE       0.039600
   7356 C2        -16.1370   -2.5150    4.7630 c3      1226 PE       0.039600
   7357 H11       -15.4670   -1.1550    3.3130 hc      1227 PE      -0.019800
   7358 H12       -17.2270   -1.1250    3.5030 hc      1227 PE      -0.019800
   7359 H21       -15.1870   -0.1150    5.5030 hc      1227 PE      -0.019800
   7360 H22       -16.9670   -0.1150    5.8330 hc      1227 PE      -0.019800
   7361 C1        -16.2770   -1.1950    4.0530 c3      1227 PE       0.039600
   7362 C2        -16.1870   -0.0550    5.0630 c3      1227 PE       0.039600
   7363 H11       -15.9270    1.1950    3.3030 hc      1228 PE      -0.019800
   7364 H12       -17.3770    1.4750    4.2530 hc      1228 PE      -0.019800
   7365 H21       -14.5270    2.1150    5.1130 hc      1228 PE      -0.019800
   7366 H22       -15.9870    2.5750    5.9730 hc      1228 PE      -0.019800
   7367 C1        -16.3070    1.2750    4.3330 c3      1228 PE       0.039600
   7368 C2        -15.5670    2.4250    4.9730 c3      1228 PE       0.039600
   7369 H11       -14.6370    4.3550    4.5330 hc      1229 PE      -0.019800
   7370 H12       -15.1870    3.5250    3.1130 hc      1229 PE      -0.019800
   7371 H21       -17.3170    4.4150    4.9830 hc      1229 PE      -0.019800
   7372 H22       -17.3370    4.2150    3.1430 hc      1229 PE      -0.019800
   7373 C1        -15.4770    3.7750    4.1430 c3      1229 PE       0.039600
   7374 C2        -16.7870    4.5450    4.0330 c3      1229 PE       0.039600
   7375 H11       -15.7470    6.4450    4.5430 hc      1230 PE      -0.019800
   7376 H12       -15.8870    6.0750    2.8330 hc      1230 PE      -0.019800
   7377 H21       -17.5070    7.9550    3.6230 hc      1230 PE      -0.019800
   7378 H22       -18.4870    6.6650    2.8730 hc      1230 PE      -0.019800
   7379 C1        -16.4270    6.0350    3.7830 c3      1230 PE       0.039600
   7380 C2        -17.7770    6.8950    3.6730 c3      1230 PE       0.039600
   7381 H11        22.7630   18.2050    5.3530 hc      1231 PE      -0.019800
   7382 H12        23.2130   17.7950    3.6630 hc      1231 PE      -0.019800
   7383 H21        23.9330   19.8850    3.3630 hc      1231 PE      -0.019800
   7384 H22        24.0630   19.9050    5.1330 hc      1231 PE      -0.019800
   7385 C1         22.6830   18.5050    4.3030 c3      1231 PE       0.039600
   7386 C2         23.3530   19.8650    4.2930 c3      1231 PE       0.039600
   7387 H11        21.8330   20.8750    3.3530 hc      1232 PE      -0.019800
   7388 H12        21.5630   20.8650    5.0930 hc      1232 PE      -0.019800
   7389 H21        23.7230   22.4550    3.5730 hc      1232 PE      -0.019800
   7390 H22        23.4330   22.6550    5.2330 hc      1232 PE      -0.019800
   7391 C1         22.3230   20.9850    4.3230 c3      1232 PE       0.039600
   7392 C2         22.9030   22.4150    4.3030 c3      1232 PE       0.039600
   7393 H11        21.6330   23.4950    2.9330 hc      1233 PE      -0.019800
   7394 H12        20.9330   23.3250    4.5730 hc      1233 PE      -0.019800
   7395 H21        23.2630   25.0950    3.6730 hc      1233 PE      -0.019800
   7396 H22        22.6630   24.9650    5.3430 hc      1233 PE      -0.019800
   7397 C1         21.8530   23.5150    4.0130 c3      1233 PE       0.039600
   7398 C2         22.3630   24.9050    4.2930 c3      1233 PE       0.039600
   7399 H11        20.9130   26.0850    3.0830 hc      1234 PE      -0.019800
   7400 H12        20.3530   25.7650    4.6830 hc      1234 PE      -0.019800
   7401 H21        22.5730   27.6150    3.8630 hc      1234 PE      -0.019800
   7402 H22        22.1130   27.3150    5.6130 hc      1234 PE      -0.019800
   7403 C1         21.2630   26.0250    4.1230 c3      1234 PE       0.039600
   7404 C2         21.7630   27.3850    4.5830 c3      1234 PE       0.039600
   7405 H11        20.1230   28.3150    3.4730 hc      1235 PE      -0.019800
   7406 H12        20.0630   28.2150    5.2830 hc      1235 PE      -0.019800
   7407 H21        21.9030   30.1050    3.6030 hc      1235 PE      -0.019800
   7408 H22        21.7130   30.0150    5.3630 hc      1235 PE      -0.019800
   7409 C1         20.6930   28.4250    4.4030 c3      1235 PE       0.039600
   7410 C2         21.1930   29.8650    4.4030 c3      1235 PE       0.039600
   7411 H11        19.3230   30.8350    3.6530 hc      1236 PE      -0.019800
   7412 H12        19.3830   30.5650    5.3530 hc      1236 PE      -0.019800
   7413 H21        20.9830   32.7250    3.7030 hc      1236 PE      -0.019800
   7414 H22        21.2730   32.4950    5.4330 hc      1236 PE      -0.019800
   7415 C1         20.0130   30.8750    4.5030 c3      1236 PE       0.039600
   7416 C2         20.5130   32.4050    4.6430 c3      1236 PE       0.039600
   7417 H11        18.5130   33.0250    4.1230 hc      1237 PE      -0.019800
   7418 H12        18.9130   33.2350    5.7730 hc      1237 PE      -0.019800
   7419 H21        19.6830   35.0050    3.5330 hc      1237 PE      -0.019800
   7420 H22        20.5330   35.2150    4.9930 hc      1237 PE      -0.019800
   7421 C1         19.3330   33.3550    4.7730 c3      1237 PE       0.039600
   7422 C2         19.5730   34.8550    4.6130 c3      1237 PE       0.039600
   7423 H11        18.1030   35.3350    6.1330 hc      1238 PE      -0.019800
   7424 H12        18.6230   36.8150    5.0930 hc      1238 PE      -0.019800
   7425 H21        16.3130   36.0850    4.5430 hc      1238 PE      -0.019800
   7426 H22        16.8730   34.5250    4.1230 hc      1238 PE      -0.019800
   7427 C1         18.4430   35.7350    5.1730 c3      1238 PE       0.039600
   7428 C2         17.2030   35.5750    4.1430 c3      1238 PE       0.039600
   7429 H11        17.6430   36.9050    2.4230 hc      1239 PE      -0.019800
   7430 H12        17.9830   35.3650    2.0530 hc      1239 PE      -0.019800
   7431 H21        15.2330   36.6250    2.2930 hc      1239 PE      -0.019800
   7432 H22        15.3330   34.8450    2.3930 hc      1239 PE      -0.019800
   7433 C1         17.2330   35.9150    2.6430 c3      1239 PE       0.039600
   7434 C2         15.8230   35.7450    2.0130 c3      1239 PE       0.039600
   7435 H11        15.9630   36.7050    0.0430 hc      1240 PE      -0.019800
   7436 H12        16.7230   35.0650    0.2130 hc      1240 PE      -0.019800
   7437 H21        14.3630   34.0550    0.3930 hc      1240 PE      -0.019800
   7438 H22        14.7630   34.8150   -1.1870 hc      1240 PE      -0.019800
   7439 C1         15.8730   35.7050    0.4830 c3      1240 PE       0.039600
   7440 C2         14.6330   34.9950   -0.1170 c3      1240 PE       0.039600
   7441 H11        13.1130   36.1050    0.9430 hc      1241 PE      -0.019800
   7442 H12        13.4830   36.7550   -0.6270 hc      1241 PE      -0.019800
   7443 H21        11.8430   34.3150    0.2830 hc      1241 PE      -0.019800
   7444 H22        12.2430   34.5550   -1.4770 hc      1241 PE      -0.019800
   7445 C1         13.3330   35.8050   -0.0870 c3      1241 PE       0.039600
   7446 C2         12.0630   35.0450   -0.5070 c3      1241 PE       0.039600
   7447 H11        11.1330   36.7950   -1.3170 hc      1242 PE      -0.019800
   7448 H12        10.1030   35.4150   -1.1770 hc      1242 PE      -0.019800
   7449 H21        10.9030   36.8450    1.3730 hc      1242 PE      -0.019800
   7450 H22         9.6330   35.6650    1.1030 hc      1242 PE      -0.019800
   7451 C1         10.8630   35.9850   -0.6370 c3      1242 PE       0.039600
   7452 C2         10.1430   36.5250    0.6530 c3      1242 PE       0.039600
   7453 H11         8.3030   37.0350   -0.2770 hc      1243 PE      -0.019800
   7454 H12         8.4830   37.9750    1.1830 hc      1243 PE      -0.019800
   7455 H21         8.6430   39.4850   -0.5970 hc      1243 PE      -0.019800
   7456 H22         9.8930   38.6350   -1.4970 hc      1243 PE      -0.019800
   7457 C1          9.0330   37.6250    0.3030 c3      1243 PE       0.039600
   7458 C2          9.5730   38.9050   -0.4870 c3      1243 PE       0.039600
   7459 H11        10.3530   40.8350    0.0030 hc      1244 PE      -0.019800
   7460 H12        10.1430   39.7350    1.3330 hc      1244 PE      -0.019800
   7461 H21        12.1530   38.8950   -0.8170 hc      1244 PE      -0.019800
   7462 H22        12.1630   38.5350    0.8830 hc      1244 PE      -0.019800
   7463 C1         10.4530   39.7850    0.2830 c3      1244 PE       0.039600
   7464 C2         11.9530   39.3450    0.1630 c3      1244 PE       0.039600
   7465 H11        12.5930  -38.5650   -0.3770 hc      1245 PE      -0.019800
   7466 H12        12.7230  -38.9250    1.3430 hc      1245 PE      -0.019800
   7467 H21        14.4930  -39.9550   -0.9270 hc      1245 PE      -0.019800
   7468 H22        14.6830  -40.5050    0.6930 hc      1245 PE      -0.019800
   7469 C1         12.8830  -39.3450    0.3430 c3      1245 PE       0.039600
   7470 C2         14.3730  -39.6250    0.1130 c3      1245 PE       0.039600
   7471 H11        14.7830  -37.6050   -0.2370 hc      1246 PE      -0.019800
   7472 H12        15.0730  -38.1250    1.4130 hc      1246 PE      -0.019800
   7473 H21        17.1330  -37.5050    0.1430 hc      1246 PE      -0.019800
   7474 H22        16.7930  -38.8150   -1.0670 hc      1246 PE      -0.019800
   7475 C1         15.2330  -38.4050    0.3630 c3      1246 PE       0.039600
   7476 C2         16.7130  -38.5150   -0.0170 c3      1246 PE       0.039600
   7477 H11        17.2730  -39.4950    1.8330 hc      1247 PE      -0.019800
   7478 H12        16.9030  -40.5550    0.5330 hc      1247 PE      -0.019800
   7479 H21        19.3730  -38.9450    0.8130 hc      1247 PE      -0.019800
   7480 H22        18.9330  -39.8550   -0.7170 hc      1247 PE      -0.019800
   7481 C1         17.3730  -39.5950    0.7530 c3      1247 PE       0.039600
   7482 C2         18.8730  -39.8250    0.3830 c3      1247 PE       0.039600
   7483 H11        19.2930   38.9550    2.1230 hc      1248 PE      -0.019800
   7484 H12        18.8630   38.0350    0.7330 hc      1248 PE      -0.019800
   7485 H21        21.4530   39.5050    1.3230 hc      1248 PE      -0.019800
   7486 H22        21.0030   39.0450   -0.2570 hc      1248 PE      -0.019800
   7487 C1         19.4530   38.9050    1.0430 c3      1248 PE       0.039600
   7488 C2         20.9430   38.7050    0.7830 c3      1248 PE       0.039600
   7489 H11        21.5130   37.1150    2.0630 hc      1249 PE      -0.019800
   7490 H12        20.6430   36.6050    0.6130 hc      1249 PE      -0.019800
   7491 H21        23.4530   37.8950    0.4230 hc      1249 PE      -0.019800
   7492 H22        22.4930   36.9050   -0.7570 hc      1249 PE      -0.019800
   7493 C1         21.4530   37.2550    0.9730 c3      1249 PE       0.039600
   7494 C2         22.7830   37.0450    0.2930 c3      1249 PE       0.039600
   7495 H11        24.2130   36.2450    1.5930 hc      1250 PE      -0.019800
   7496 H12        22.8830   35.0950    1.3930 hc      1250 PE      -0.019800
   7497 H21        25.1530   35.6150   -0.7170 hc      1250 PE      -0.019800
   7498 H22        23.7430   34.5850   -0.9670 hc      1250 PE      -0.019800
   7499 C1         23.5330   35.8050    0.8530 c3      1250 PE       0.039600
   7500 C2         24.3630   35.0550   -0.1970 c3      1250 PE       0.039600
   7501 H11        25.9630   34.3450    1.0830 hc      1251 PE      -0.019800
   7502 H12        24.5130   33.3550    1.1930 hc      1251 PE      -0.019800
   7503 H21        26.2330   33.3250   -1.3470 hc      1251 PE      -0.019800
   7504 H22        25.0730   32.2050   -0.8770 hc      1251 PE      -0.019800
   7505 C1         25.1230   33.9550    0.5130 c3      1251 PE       0.039600
   7506 C2         25.7730   32.9250   -0.4370 c3      1251 PE       0.039600
   7507 H11        27.3730   32.6850    0.9930 hc      1252 PE      -0.019800
   7508 H12        26.2230   31.4950    1.2430 hc      1252 PE      -0.019800
   7509 H21        28.1730   31.5950   -1.1870 hc      1252 PE      -0.019800
   7510 H22        26.8630   30.5250   -1.0370 hc      1252 PE      -0.019800
   7511 C1         26.7230   32.0150    0.4230 c3      1252 PE       0.039600
   7512 C2         27.6230   31.0250   -0.4270 c3      1252 PE       0.039600
   7513 H11        28.9030   30.5350    1.1730 hc      1253 PE      -0.019800
   7514 H12        27.6130   29.3250    0.8930 hc      1253 PE      -0.019800
   7515 H21        30.0030   29.7050   -0.7670 hc      1253 PE      -0.019800
   7516 H22        28.5830   28.5650   -1.1670 hc      1253 PE      -0.019800
   7517 C1         28.3530   29.9750    0.4030 c3      1253 PE       0.039600
   7518 C2         29.2630   28.9750   -0.4070 c3      1253 PE       0.039600
   7519 H11        30.5430   28.3350    1.2230 hc      1254 PE      -0.019800
   7520 H12        29.2230   27.2550    1.0330 hc      1254 PE      -0.019800
   7521 H21        31.3730   27.4550   -1.1570 hc      1254 PE      -0.019800
   7522 H22        30.0930   26.2750   -1.0470 hc      1254 PE      -0.019800
   7523 C1         29.9430   27.8450    0.4430 c3      1254 PE       0.039600
   7524 C2         30.7730   26.8850   -0.4370 c3      1254 PE       0.039600
   7525 H11        32.1830   26.5650    1.1130 hc      1255 PE      -0.019800
   7526 H12        30.9330   25.3150    1.0630 hc      1255 PE      -0.019800
   7527 H21        33.2430   25.6150   -1.0070 hc      1255 PE      -0.019800
   7528 H22        32.0130   24.4750   -1.2070 hc      1255 PE      -0.019800
   7529 C1         31.5930   25.9350    0.4330 c3      1255 PE       0.039600
   7530 C2         32.5730   24.9850   -0.4070 c3      1255 PE       0.039600
   7531 H11        34.3030   24.5550    0.9930 hc      1256 PE      -0.019800
   7532 H12        32.8830   23.4750    1.1430 hc      1256 PE      -0.019800
   7533 H21        34.8630   23.2750   -1.1070 hc      1256 PE      -0.019800
   7534 H22        33.3530   22.3850   -1.0670 hc      1256 PE      -0.019800
   7535 C1         33.5130   24.0350    0.4330 c3      1256 PE       0.039600
   7536 C2         34.1030   22.8650   -0.4270 c3      1256 PE       0.039600
   7537 H11        35.1230   22.3350    1.2830 hc      1257 PE      -0.019800
   7538 H12        33.8130   21.2550    0.8930 hc      1257 PE      -0.019800
   7539 H21        36.0430   21.3350   -1.0770 hc      1257 PE      -0.019800
   7540 H22        34.8630   20.0050   -0.7670 hc      1257 PE      -0.019800
   7541 C1         34.6530   21.7950    0.4430 c3      1257 PE       0.039600
   7542 C2         35.4830   20.7850   -0.3170 c3      1257 PE       0.039600
   7543 H11        37.3430   20.8850    0.9130 hc      1258 PE      -0.019800
   7544 H12        36.1530   19.6850    1.4630 hc      1258 PE      -0.019800
   7545 H21        37.6930   19.5550   -1.1570 hc      1258 PE      -0.019800
   7546 H22        36.7430   18.2850   -0.5570 hc      1258 PE      -0.019800
   7547 C1         36.6230   20.1350    0.5730 c3      1258 PE       0.039600
   7548 C2         37.3830   19.1050   -0.2070 c3      1258 PE       0.039600
   7549 H11        39.4430   19.0950    0.5330 hc      1259 PE      -0.019800
   7550 H12        38.2430   18.1150    1.4630 hc      1259 PE      -0.019800
   7551 H21        39.4830   17.6350   -1.3470 hc      1259 PE      -0.019800
   7552 H22        38.2930   16.5750   -0.4570 hc      1259 PE      -0.019800
   7553 C1         38.6030   18.3850    0.4630 c3      1259 PE       0.039600
   7554 C2         39.1530   17.2350   -0.3770 c3      1259 PE       0.039600
   7555 H11       -38.9970   17.3950    0.6330 hc      1260 PE      -0.019800
   7556 H12       -40.0270   15.8950    1.0630 hc      1260 PE      -0.019800
   7557 H21       -39.2870   14.6650   -0.5570 hc      1260 PE      -0.019800
   7558 H22       -37.8370   15.6550   -0.3470 hc      1260 PE      -0.019800
   7559 C1        -39.6570   16.5850    0.2930 c3      1260 PE       0.039600
   7560 C2        -38.8870   15.6750   -0.6870 c3      1260 PE       0.039600
   7561 H11        -8.4970  -37.2650    0.9030 hc      1261 PE      -0.019800
   7562 H12        -8.7870  -37.3350   -0.8770 hc      1261 PE      -0.019800
   7563 H21        -9.4770  -39.7850   -0.3270 hc      1261 PE      -0.019800
   7564 H22        -9.1570  -39.3950    1.3530 hc      1261 PE      -0.019800
   7565 C1         -9.0870  -37.7350    0.1030 c3      1261 PE       0.039600
   7566 C2         -8.7870  -39.2350    0.3230 c3      1261 PE       0.039600
   7567 H11        -6.8770   40.4850   -0.7870 hc      1262 PE      -0.019800
   7568 H12        -6.7170   40.8750    0.9530 hc      1262 PE      -0.019800
   7569 H21        -7.7070   38.1250   -0.1170 hc      1262 PE      -0.019800
   7570 H22        -7.4070   38.5150    1.4930 hc      1262 PE      -0.019800
   7571 C1         -7.2970   40.3250    0.2130 c3      1262 PE       0.039600
   7572 C2         -7.0870   38.8050    0.4830 c3      1262 PE       0.039600
   7573 H11        -5.1970   38.9550   -0.3370 hc      1263 PE      -0.019800
   7574 H12        -5.0170   38.5550    1.4230 hc      1263 PE      -0.019800
   7575 H21        -5.9870   36.7250   -0.6470 hc      1263 PE      -0.019800
   7576 H22        -5.5170   36.2650    1.0730 hc      1263 PE      -0.019800
   7577 C1         -5.5970   38.3650    0.5030 c3      1263 PE       0.039600
   7578 C2         -5.3170   36.9050    0.2030 c3      1263 PE       0.039600
   7579 H11        -3.4870   37.0450   -1.0370 hc      1264 PE      -0.019800
   7580 H12        -3.2570   37.1150    0.7130 hc      1264 PE      -0.019800
   7581 H21        -3.9970   34.5850   -0.8070 hc      1264 PE      -0.019800
   7582 H22        -3.8570   34.5950    0.8430 hc      1264 PE      -0.019800
   7583 C1         -3.8170   36.6250   -0.0770 c3      1264 PE       0.039600
   7584 C2         -3.4470   35.1250   -0.0270 c3      1264 PE       0.039600
   7585 H11        -1.5970   35.3550   -1.1470 hc      1265 PE      -0.019800
   7586 H12        -1.3270   35.2650    0.5930 hc      1265 PE      -0.019800
   7587 H21        -2.0070   32.8050   -1.2970 hc      1265 PE      -0.019800
   7588 H22        -1.9170   32.7950    0.4930 hc      1265 PE      -0.019800
   7589 C1         -1.9270   34.8450   -0.2270 c3      1265 PE       0.039600
   7590 C2         -1.5170   33.2550   -0.4170 c3      1265 PE       0.039600
   7591 H11         0.3930   33.4650   -1.6070 hc      1266 PE      -0.019800
   7592 H12         0.5730   33.8350    0.0830 hc      1266 PE      -0.019800
   7593 H21         0.2430   31.0250   -1.0570 hc      1266 PE      -0.019800
   7594 H22         0.4030   31.3950    0.6630 hc      1266 PE      -0.019800
   7595 C1          0.0330   33.1750   -0.6170 c3      1266 PE       0.039600
   7596 C2          0.6130   31.7650   -0.3470 c3      1266 PE       0.039600
   7597 H11         2.4230   32.0650   -1.4970 hc      1267 PE      -0.019800
   7598 H12         2.6430   32.3750    0.2730 hc      1267 PE      -0.019800
   7599 H21         2.4330   29.7850   -1.2170 hc      1267 PE      -0.019800
   7600 H22         2.3930   29.7850    0.4930 hc      1267 PE      -0.019800
   7601 C1          2.1530   31.7450   -0.4870 c3      1267 PE       0.039600
   7602 C2          2.7730   30.3650   -0.3570 c3      1267 PE       0.039600
   7603 H11         4.7630   30.9350   -1.2270 hc      1268 PE      -0.019800
   7604 H12         4.7830   30.7450    0.5030 hc      1268 PE      -0.019800
   7605 H21         4.4330   28.4750   -1.3770 hc      1268 PE      -0.019800
   7606 H22         4.4630   28.3150    0.4130 hc      1268 PE      -0.019800
   7607 C1          4.3430   30.3250   -0.4070 c3      1268 PE       0.039600
   7608 C2          4.8330   28.8950   -0.4370 c3      1268 PE       0.039600
   7609 H11         6.8130   29.1950   -1.3770 hc      1269 PE      -0.019800
   7610 H12         6.7330   29.3850    0.3930 hc      1269 PE      -0.019800
   7611 H21         6.2130   26.8550   -1.2070 hc      1269 PE      -0.019800
   7612 H22         6.3730   26.9350    0.6030 hc      1269 PE      -0.019800
   7613 C1          6.3430   28.8150   -0.4670 c3      1269 PE       0.039600
   7614 C2          6.7530   27.2950   -0.3570 c3      1269 PE       0.039600
   7615 H11         8.7430   27.5850   -1.2970 hc      1270 PE      -0.019800
   7616 H12         8.6230   27.7450    0.4930 hc      1270 PE      -0.019800
   7617 H21         8.2230   25.1750   -1.0670 hc      1270 PE      -0.019800
   7618 H22         8.3130   25.2450    0.6530 hc      1270 PE      -0.019800
   7619 C1          8.2730   27.2050   -0.3870 c3      1270 PE       0.039600
   7620 C2          8.7030   25.7450   -0.2470 c3      1270 PE       0.039600
   7621 H11        10.6730   25.7450   -1.1770 hc      1271 PE      -0.019800
   7622 H12        10.5730   26.2450    0.5030 hc      1271 PE      -0.019800
   7623 H21        10.0030   23.3450   -0.4870 hc      1271 PE      -0.019800
   7624 H22         9.9830   23.8950    1.1730 hc      1271 PE      -0.019800
   7625 C1         10.2230   25.4850   -0.2070 c3      1271 PE       0.039600
   7626 C2         10.5230   24.0050    0.2230 c3      1271 PE       0.039600
   7627 H11        12.2630   23.5850   -0.7970 hc      1272 PE      -0.019800
   7628 H12        12.4930   24.2650    0.8930 hc      1272 PE      -0.019800
   7629 H21        11.5830   21.4150    0.3630 hc      1272 PE      -0.019800
   7630 H22        11.9930   22.1350    1.9230 hc      1272 PE      -0.019800
   7631 C1         11.9730   23.5450    0.2530 c3      1272 PE       0.039600
   7632 C2         12.2430   22.1350    0.8530 c3      1272 PE       0.039600
   7633 H11        14.0430   21.9250   -0.3770 hc      1273 PE      -0.019800
   7634 H12        14.3430   22.2350    1.3730 hc      1273 PE      -0.019800
   7635 H21        13.3030   19.5350    0.2630 hc      1273 PE      -0.019800
   7636 H22        13.7230   19.8850    1.9430 hc      1273 PE      -0.019800
   7637 C1         13.7030   21.7150    0.6430 c3      1273 PE       0.039600
   7638 C2         13.9230   20.1850    0.9030 c3      1273 PE       0.039600
   7639 H11        15.5130   19.9550   -0.5470 hc      1274 PE      -0.019800
   7640 H12        16.1230   20.0850    1.0830 hc      1274 PE      -0.019800
   7641 H21        14.4230   17.6050    0.0230 hc      1274 PE      -0.019800
   7642 H22        15.3630   17.5850    1.4730 hc      1274 PE      -0.019800
   7643 C1         15.3330   19.6250    0.4830 c3      1274 PE       0.039600
   7644 C2         15.3430   18.0150    0.4630 c3      1274 PE       0.039600
   7645 H11        17.2930   18.0850   -0.5870 hc      1275 PE      -0.019800
   7646 H12        16.9130   16.6750    0.4830 hc      1275 PE      -0.019800
   7647 H21        15.2830   15.9450   -1.2170 hc      1275 PE      -0.019800
   7648 H22        16.9130   15.9250   -1.9370 hc      1275 PE      -0.019800
   7649 C1         16.5230   17.3550   -0.2770 c3      1275 PE       0.039600
   7650 C2         16.1230   16.5750   -1.5370 c3      1275 PE       0.039600
   7651 H11        14.7130   17.9350   -2.3170 hc      1276 PE      -0.019800
   7652 H12        16.3930   18.3950   -2.7470 hc      1276 PE      -0.019800
   7653 H21        16.5030   16.5950   -4.4070 hc      1276 PE      -0.019800
   7654 H22        15.3130   17.7650   -4.7970 hc      1276 PE      -0.019800
   7655 C1         15.6730   17.5650   -2.6970 c3      1276 PE       0.039600
   7656 C2         15.5330   16.9650   -4.0770 c3      1276 PE       0.039600
   7657 H11        14.4830   15.3250   -5.0570 hc      1277 PE      -0.019800
   7658 H12        14.4430   15.1050   -3.3670 hc      1277 PE      -0.019800
   7659 H21        12.8630   17.3250   -4.8170 hc      1277 PE      -0.019800
   7660 H22        13.0130   16.9450   -3.0670 hc      1277 PE      -0.019800
   7661 C1         14.4030   15.8950   -4.1170 c3      1277 PE       0.039600
   7662 C2         12.9930   16.5250   -4.0770 c3      1277 PE       0.039600
   7663 H11        11.8930   14.9350   -5.1070 hc      1278 PE      -0.019800
   7664 H12        11.9530   14.6650   -3.3270 hc      1278 PE      -0.019800
   7665 H21        10.3530   16.6250   -4.9070 hc      1278 PE      -0.019800
   7666 H22        10.3530   16.3750   -3.0670 hc      1278 PE      -0.019800
   7667 C1         11.8830   15.4150   -4.1170 c3      1278 PE       0.039600
   7668 C2         10.5030   15.9350   -4.0570 c3      1278 PE       0.039600
   7669 H11         9.4930   14.3250   -5.0470 hc      1279 PE      -0.019800
   7670 H12         9.5930   14.1750   -3.2470 hc      1279 PE      -0.019800
   7671 H21         7.9630   16.3750   -4.8070 hc      1279 PE      -0.019800
   7672 H22         7.8430   16.0950   -3.1070 hc      1279 PE      -0.019800
   7673 C1          9.3930   14.8450   -4.0870 c3      1279 PE       0.039600
   7674 C2          8.0130   15.5750   -4.0570 c3      1279 PE       0.039600
   7675 H11         7.1630   13.7750   -4.8970 hc      1280 PE      -0.019800
   7676 H12         6.6530   14.0350   -3.1870 hc      1280 PE      -0.019800
   7677 H21         5.3830   15.3750   -5.5970 hc      1280 PE      -0.019800
   7678 H22         5.2530   15.9950   -3.9270 hc      1280 PE      -0.019800
   7679 C1          6.8230   14.5150   -4.1570 c3      1280 PE       0.039600
   7680 C2          5.4030   15.0950   -4.5370 c3      1280 PE       0.039600
   7681 H11         4.2430   13.3750   -5.0570 hc      1281 PE      -0.019800
   7682 H12         4.4230   13.5450   -3.3770 hc      1281 PE      -0.019800
   7683 H21         2.6130   15.2950   -5.1270 hc      1281 PE      -0.019800
   7684 H22         2.7830   15.4950   -3.3370 hc      1281 PE      -0.019800
   7685 C1          4.1830   14.1450   -4.2670 c3      1281 PE       0.039600
   7686 C2          2.7630   14.7750   -4.1670 c3      1281 PE       0.039600
   7687 H11         0.5330   14.4950   -4.3070 hc      1282 PE      -0.019800
   7688 H12         1.5130   13.1550   -4.9570 hc      1282 PE      -0.019800
   7689 H21         1.6830   13.6950   -1.9770 hc      1282 PE      -0.019800
   7690 H22         1.8730   12.2350   -3.0070 hc      1282 PE      -0.019800
   7691 C1          1.4630   13.9250   -4.1770 c3      1282 PE       0.039600
   7692 C2          1.2530   13.1150   -2.7970 c3      1282 PE       0.039600
   7693 H11        -0.7170   13.5550   -2.0870 hc      1283 PE      -0.019800
   7694 H12        -0.6270   12.5750   -3.6270 hc      1283 PE      -0.019800
   7695 H21         0.1330   10.6550   -2.2270 hc      1283 PE      -0.019800
   7696 H22        -1.4670   11.0250   -1.8370 hc      1283 PE      -0.019800
   7697 C1         -0.2070   12.7550   -2.6370 c3      1283 PE       0.039600
   7698 C2         -0.4570   11.4350   -1.7270 c3      1283 PE       0.039600
   7699 H11         1.0430   11.6950   -0.1070 hc      1284 PE      -0.019800
   7700 H12        -0.4570   12.4350    0.1830 hc      1284 PE      -0.019800
   7701 H21         0.0930    9.4650    0.3530 hc      1284 PE      -0.019800
   7702 H22        -1.5770   10.2150    0.4330 hc      1284 PE      -0.019800
   7703 C1         -0.0270   11.5150   -0.2270 c3      1284 PE       0.039600
   7704 C2         -0.5070   10.3350    0.6630 c3      1284 PE       0.039600
   7705 H11         0.5830   11.1750    2.3230 hc      1285 PE      -0.019800
   7706 H12        -1.2570   11.1750    2.4130 hc      1285 PE      -0.019800
   7707 H21        -1.0470    8.6950    2.6730 hc      1285 PE      -0.019800
   7708 H22        -0.5970    9.7750    4.0130 hc      1285 PE      -0.019800
   7709 C1         -0.3470   10.6450    2.1030 c3      1285 PE       0.039600
   7710 C2         -0.3070    9.4250    3.0230 c3      1285 PE       0.039600
   7711 H11         1.4530    8.6950    2.0730 hc      1286 PE      -0.019800
   7712 H12         1.7430    9.5750    3.5530 hc      1286 PE      -0.019800
   7713 H21         0.8630    7.5550    4.9030 hc      1286 PE      -0.019800
   7714 H22         2.2930    7.2450    4.0430 hc      1286 PE      -0.019800
   7715 C1          1.1130    8.7950    3.1130 c3      1286 PE       0.039600
   7716 C2          1.2430    7.5050    3.8730 c3      1286 PE       0.039600
   7717 H11         0.7430    5.3550    3.6630 hc      1287 PE      -0.019800
   7718 H12        -0.4870    6.4550    3.1930 hc      1287 PE      -0.019800
   7719 H21         2.2030    6.2350    1.8030 hc      1287 PE      -0.019800
   7720 H22         0.6730    6.8750    1.1330 hc      1287 PE      -0.019800
   7721 C1          0.6030    6.3150    3.1530 c3      1287 PE       0.039600
   7722 C2          1.1230    6.0850    1.7330 c3      1287 PE       0.039600
   7723 H11         1.1230    3.8850    1.7330 hc      1288 PE      -0.019800
   7724 H12        -0.3770    4.5750    1.3230 hc      1288 PE      -0.019800
   7725 H21         2.1730    4.5450   -0.3870 hc      1288 PE      -0.019800
   7726 H22         0.6330    5.2850   -1.0070 hc      1288 PE      -0.019800
   7727 C1          0.7030    4.6950    1.1330 c3      1288 PE       0.039600
   7728 C2          1.0830    4.5250   -0.3570 c3      1288 PE       0.039600
   7729 H11         1.0930    2.3450   -0.2970 hc      1289 PE      -0.019800
   7730 H12        -0.4270    2.9750   -0.8070 hc      1289 PE      -0.019800
   7731 H21         2.0730    3.0650   -2.4670 hc      1289 PE      -0.019800
   7732 H22         0.5030    3.8450   -2.9270 hc      1289 PE      -0.019800
   7733 C1          0.6530    3.1250   -0.9270 c3      1289 PE       0.039600
   7734 C2          0.9830    3.0050   -2.4070 c3      1289 PE       0.039600
   7735 H11         0.7730    0.8450   -2.4770 hc      1290 PE      -0.019800
   7736 H12        -0.6170    1.7050   -3.0170 hc      1290 PE      -0.019800
   7737 H21         0.4630    0.8250   -5.0770 hc      1290 PE      -0.019800
   7738 H22         2.0230    1.5650   -4.5770 hc      1290 PE      -0.019800
   7739 C1          0.4830    1.7050   -3.0870 c3      1290 PE       0.039600
   7740 C2          0.9330    1.6550   -4.5270 c3      1290 PE       0.039600
   7741 H11        -5.5270   -3.7950   -4.1770 hc      1291 PE      -0.019800
   7742 H12        -4.6770   -3.5150   -2.6070 hc      1291 PE      -0.019800
   7743 H21        -5.7770   -1.4850   -2.3070 hc      1291 PE      -0.019800
   7744 H22        -6.9070   -1.7350   -3.6170 hc      1291 PE      -0.019800
   7745 C1         -5.6270   -3.4450   -3.1470 c3      1291 PE       0.039600
   7746 C2         -5.8870   -1.9750   -3.2770 c3      1291 PE       0.039600
   7747 H11        -3.8370   -1.7450   -4.0070 hc      1292 PE      -0.019800
   7748 H12        -5.0370   -1.7750   -5.3270 hc      1292 PE      -0.019800
   7749 H21        -4.8570    0.5450   -3.2270 hc      1292 PE      -0.019800
   7750 H22        -5.8070    0.6150   -4.8170 hc      1292 PE      -0.019800
   7751 C1         -4.8270   -1.4050   -4.3170 c3      1292 PE       0.039600
   7752 C2         -4.9670    0.1750   -4.2570 c3      1292 PE       0.039600
   7753 H11        -2.9070    0.7250   -4.3270 hc      1293 PE      -0.019800
   7754 H12        -3.6470    0.3950   -5.8770 hc      1293 PE      -0.019800
   7755 H21        -4.1970    2.8650   -4.0770 hc      1293 PE      -0.019800
   7756 H22        -4.7970    2.7550   -5.7470 hc      1293 PE      -0.019800
   7757 C1         -3.7970    0.9350   -4.9270 c3      1293 PE       0.039600
   7758 C2         -3.9570    2.4950   -5.0870 c3      1293 PE       0.039600
   7759 H11        -1.9370    3.0150   -4.7570 hc      1294 PE      -0.019800
   7760 H12        -2.3170    2.5950   -6.4470 hc      1294 PE      -0.019800
   7761 H21        -3.0770    5.2650   -5.0070 hc      1294 PE      -0.019800
   7762 H22        -3.6670    4.7150   -6.5370 hc      1294 PE      -0.019800
   7763 C1         -2.6670    3.1450   -5.5770 c3      1294 PE       0.039600
   7764 C2         -2.7970    4.6550   -5.8770 c3      1294 PE       0.039600
   7765 H11        -0.7070    5.3850   -5.9070 hc      1295 PE      -0.019800
   7766 H12        -1.2970    4.6450   -7.3570 hc      1295 PE      -0.019800
   7767 H21        -1.8570    7.4450   -6.0870 hc      1295 PE      -0.019800
   7768 H22        -2.8070    6.8950   -7.4770 hc      1295 PE      -0.019800
   7769 C1         -1.5970    5.3250   -6.5470 c3      1295 PE       0.039600
   7770 C2         -1.8370    6.8050   -6.9770 c3      1295 PE       0.039600
   7771 H11        -0.5570    6.4750   -8.6870 hc      1296 PE      -0.019800
   7772 H12        -1.1270    8.1950   -8.4670 hc      1296 PE      -0.019800
   7773 H21         0.9730    7.0850   -6.4970 hc      1296 PE      -0.019800
   7774 H22         0.2330    8.7450   -6.6070 hc      1296 PE      -0.019800
   7775 C1         -0.7170    7.3050   -7.9870 c3      1296 PE       0.039600
   7776 C2          0.5330    7.8450   -7.1570 c3      1296 PE       0.039600
   7777 H11         1.7230    7.4850   -8.9670 hc      1297 PE      -0.019800
   7778 H12         1.3130    9.1650   -8.4970 hc      1297 PE      -0.019800
   7779 H21         3.2930    7.5350   -6.7870 hc      1297 PE      -0.019800
   7780 H22         3.0830    9.2250   -6.8370 hc      1297 PE      -0.019800
   7781 C1          1.6930    8.2050   -8.1370 c3      1297 PE       0.039600
   7782 C2          3.0530    8.3450   -7.4870 c3      1297 PE       0.039600
   7783 H11         4.2930    7.3450   -8.9570 hc      1298 PE      -0.019800
   7784 H12         3.9530    9.0950   -9.3170 hc      1298 PE      -0.019800
   7785 H21         5.6330    8.1550   -6.9970 hc      1298 PE      -0.019800
   7786 H22         5.2630    9.8550   -7.4770 hc      1298 PE      -0.019800
   7787 C1          4.1630    8.3550   -8.5370 c3      1298 PE       0.039600
   7788 C2          5.4930    8.8450   -7.8370 c3      1298 PE       0.039600
   7789 H11         6.8730    7.7750   -9.1970 hc      1299 PE      -0.019800
   7790 H12         6.6430    9.4950   -9.4870 hc      1299 PE      -0.019800
   7791 H21         8.1130    8.6750   -6.9270 hc      1299 PE      -0.019800
   7792 H22         7.9430   10.2150   -7.6970 hc      1299 PE      -0.019800
   7793 C1          6.7730    8.7550   -8.6970 c3      1299 PE       0.039600
   7794 C2          8.0430    9.1450   -7.9170 c3      1299 PE       0.039600
   7795 H11         9.3930    7.9350   -9.0170 hc      1300 PE      -0.019800
   7796 H12         9.1230    9.5150   -9.7370 hc      1300 PE      -0.019800
   7797 H21        10.7630    8.9150   -7.1170 hc      1300 PE      -0.019800
   7798 H22        10.4630   10.5350   -7.6970 hc      1300 PE      -0.019800
   7799 C1          9.3130    9.0050   -8.7770 c3      1300 PE       0.039600
   7800 C2         10.6030    9.4950   -8.0370 c3      1300 PE       0.039600
   7801 H11        11.9030    8.5950   -9.4070 hc      1301 PE      -0.019800
   7802 H12        11.7330   10.3450   -9.6270 hc      1301 PE      -0.019800
   7803 H21        13.2830    8.8650   -7.4470 hc      1301 PE      -0.019800
   7804 H22        13.0630   10.5750   -7.3670 hc      1301 PE      -0.019800
   7805 C1         11.8230    9.5450   -8.8770 c3      1301 PE       0.039600
   7806 C2         13.1730    9.7550   -8.0870 c3      1301 PE       0.039600
   7807 H11        14.4930    8.8150   -9.4570 hc      1302 PE      -0.019800
   7808 H12        14.2730   10.5450   -9.7370 hc      1302 PE      -0.019800
   7809 H21        15.8430    9.3650   -7.3970 hc      1302 PE      -0.019800
   7810 H22        15.5230   11.1150   -7.5370 hc      1302 PE      -0.019800
   7811 C1         14.4230    9.7950   -8.9570 c3      1302 PE       0.039600
   7812 C2         15.7030   10.1950   -8.0970 c3      1302 PE       0.039600
   7813 H11        17.2530    9.7750   -9.7270 hc      1303 PE      -0.019800
   7814 H12        16.9230   11.4450   -9.4770 hc      1303 PE      -0.019800
   7815 H21        18.2530    9.7850   -7.3870 hc      1303 PE      -0.019800
   7816 H22        17.8230   11.4450   -7.1970 hc      1303 PE      -0.019800
   7817 C1         16.9730   10.4850   -8.9370 c3      1303 PE       0.039600
   7818 C2         18.1530   10.7150   -7.9570 c3      1303 PE       0.039600
   7819 H11        19.5630   10.4250   -9.4870 hc      1304 PE      -0.019800
   7820 H12        19.3730   12.1150   -9.0570 hc      1304 PE      -0.019800
   7821 H21        20.9630   10.0550   -7.5270 hc      1304 PE      -0.019800
   7822 H22        20.6430   11.6650   -6.8370 hc      1304 PE      -0.019800
   7823 C1         19.4530   11.1050   -8.6370 c3      1304 PE       0.039600
   7824 C2         20.6730   11.0850   -7.7670 c3      1304 PE       0.039600
   7825 H11        22.0230   11.3050   -9.5270 hc      1305 PE      -0.019800
   7826 H12        21.7230   12.7050   -8.6870 hc      1305 PE      -0.019800
   7827 H21        23.2830   10.4450   -7.2970 hc      1305 PE      -0.019800
   7828 H22        23.2430   12.1350   -6.8070 hc      1305 PE      -0.019800
   7829 C1         21.9030   11.6450   -8.4870 c3      1305 PE       0.039600
   7830 C2         23.1930   11.4650   -7.6770 c3      1305 PE       0.039600
   7831 H11        24.7830   11.0850   -9.2570 hc      1306 PE      -0.019800
   7832 H12        24.2130   12.7650   -9.0870 hc      1306 PE      -0.019800
   7833 H21        26.1330   11.3850   -7.2270 hc      1306 PE      -0.019800
   7834 H22        25.4530   12.9250   -6.8570 hc      1306 PE      -0.019800
   7835 C1         24.4630   11.8550   -8.5370 c3      1306 PE       0.039600
   7836 C2         25.7030   12.2750   -7.7070 c3      1306 PE       0.039600
   7837 H11        27.1730   12.4950   -9.3570 hc      1307 PE      -0.019800
   7838 H12        26.1530   13.8650   -9.2370 hc      1307 PE      -0.019800
   7839 H21        28.4430   13.2250   -7.1870 hc      1307 PE      -0.019800
   7840 H22        27.3330   14.5650   -7.2170 hc      1307 PE      -0.019800
   7841 C1         26.6730   13.1250   -8.6170 c3      1307 PE       0.039600
   7842 C2         27.8330   13.8350   -7.8570 c3      1307 PE       0.039600
   7843 H11        29.3730   13.8950   -9.3770 hc      1308 PE      -0.019800
   7844 H12        28.1730   15.1550   -9.4870 hc      1308 PE      -0.019800
   7845 H21        30.4330   14.6150   -7.4870 hc      1308 PE      -0.019800
   7846 H22        29.2430   15.8150   -7.0270 hc      1308 PE      -0.019800
   7847 C1         28.8230   14.6350   -8.7770 c3      1308 PE       0.039600
   7848 C2         29.7730   15.3950   -7.8870 c3      1308 PE       0.039600
   7849 H11        31.2830   16.9850   -7.7670 hc      1309 PE      -0.019800
   7850 H12        31.2230   16.2550   -9.3470 hc      1309 PE      -0.019800
   7851 H21        29.0530   17.5150   -9.8470 hc      1309 PE      -0.019800
   7852 H22        30.3830   18.5550   -9.4770 hc      1309 PE      -0.019800
   7853 C1         30.5930   16.5650   -8.5070 c3      1309 PE       0.039600
   7854 C2         29.7230   17.8050   -9.0270 c3      1309 PE       0.039600
   7855 H11        28.3530   17.8750   -7.3470 hc      1310 PE      -0.019800
   7856 H12        29.6030   19.1450   -7.1770 hc      1310 PE      -0.019800
   7857 H21        27.4330   18.9550   -9.2770 hc      1310 PE      -0.019800
   7858 H22        28.7230   20.2350   -9.2670 hc      1310 PE      -0.019800
   7859 C1         28.9730   18.6050   -7.8870 c3      1310 PE       0.039600
   7860 C2         28.0430   19.6250   -8.6570 c3      1310 PE       0.039600
   7861 H11        26.4430   19.9850   -7.2370 hc      1311 PE      -0.019800
   7862 H12        27.7730   21.1550   -7.1670 hc      1311 PE      -0.019800
   7863 H21        25.4630   20.9150   -9.1770 hc      1311 PE      -0.019800
   7864 H22        26.8930   21.7050   -9.6670 hc      1311 PE      -0.019800
   7865 C1         27.1430   20.5650   -7.8470 c3      1311 PE       0.039600
   7866 C2         26.3330   21.4450   -8.7670 c3      1311 PE       0.039600
   7867 H11        25.2430   22.3250   -7.1570 hc      1312 PE      -0.019800
   7868 H12        26.7430   23.1250   -7.6170 hc      1312 PE      -0.019800
   7869 H21        24.4330   22.9950   -9.5570 hc      1312 PE      -0.019800
   7870 H22        25.8530   24.0650   -9.5770 hc      1312 PE      -0.019800
   7871 C1         25.8530   22.6150   -8.0170 c3      1312 PE       0.039600
   7872 C2         25.0730   23.6350   -8.9370 c3      1312 PE       0.039600
   7873 H11        23.6930   24.2350   -7.4670 hc      1313 PE      -0.019800
   7874 H12        25.0930   25.2650   -7.4970 hc      1313 PE      -0.019800
   7875 H21        23.0130   25.2050   -9.7370 hc      1313 PE      -0.019800
   7876 H22        24.4430   26.2250   -9.7870 hc      1313 PE      -0.019800
   7877 C1         24.3630   24.7650   -8.1570 c3      1313 PE       0.039600
   7878 C2         23.7030   25.7850   -9.1070 c3      1313 PE       0.039600
   7879 H11        22.4430   26.3850   -7.4270 hc      1314 PE      -0.019800
   7880 H12        23.7130   27.4050   -7.7170 hc      1314 PE      -0.019800
   7881 H21        21.1930   27.0750   -9.5670 hc      1314 PE      -0.019800
   7882 H22        22.5130   28.1450  -10.0970 hc      1314 PE      -0.019800
   7883 C1         22.9630   26.8350   -8.2770 c3      1314 PE       0.039600
   7884 C2         22.0030   27.7250   -9.2170 c3      1314 PE       0.039600
   7885 H11        21.0830   28.5250   -7.4970 hc      1315 PE      -0.019800
   7886 H12        22.5630   29.3850   -8.0270 hc      1315 PE      -0.019800
   7887 H21        19.8930   29.2450   -9.5270 hc      1315 PE      -0.019800
   7888 H22        21.1930   30.4950   -9.8370 hc      1315 PE      -0.019800
   7889 C1         21.6330   28.9150   -8.3670 c3      1315 PE       0.039600
   7890 C2         20.6830   29.8650   -9.0870 c3      1315 PE       0.039600
   7891 H11        19.3230   30.3650   -7.3170 hc      1316 PE      -0.019800
   7892 H12        20.5630   31.4650   -7.6570 hc      1316 PE      -0.019800
   7893 H21        18.0130   31.1250   -9.4670 hc      1316 PE      -0.019800
   7894 H22        19.2730   32.3950   -9.7670 hc      1316 PE      -0.019800
   7895 C1         19.8130   30.8550   -8.1770 c3      1316 PE       0.039600
   7896 C2         18.7430   31.8050   -9.0070 c3      1316 PE       0.039600
   7897 H11        17.4430   32.1350   -7.3170 hc      1317 PE      -0.019800
   7898 H12        18.8130   33.2950   -7.4970 hc      1317 PE      -0.019800
   7899 H21        16.3330   33.2750   -9.3570 hc      1317 PE      -0.019800
   7900 H22        17.5930   34.4550   -9.5570 hc      1317 PE      -0.019800
   7901 C1         18.0030   32.7650   -8.0170 c3      1317 PE       0.039600
   7902 C2         17.1030   33.8250   -8.7970 c3      1317 PE       0.039600
   7903 H11        15.6030   34.3050   -7.2970 hc      1318 PE      -0.019800
   7904 H12        17.2130   35.1950   -7.3570 hc      1318 PE      -0.019800
   7905 H21        14.9830   35.5150   -9.4870 hc      1318 PE      -0.019800
   7906 H22        16.4330   36.3850   -9.4270 hc      1318 PE      -0.019800
   7907 C1         16.3530   34.8150   -7.9170 c3      1318 PE       0.039600
   7908 C2         15.6730   35.9750   -8.7570 c3      1318 PE       0.039600
   7909 H11        14.2730   36.4350   -7.2070 hc      1319 PE      -0.019800
   7910 H12        15.6930   37.4950   -7.3670 hc      1319 PE      -0.019800
   7911 H21        13.5330   37.4850   -9.5670 hc      1319 PE      -0.019800
   7912 H22        14.7330   38.6550   -9.2570 hc      1319 PE      -0.019800
   7913 C1         14.8930   36.9950   -7.9270 c3      1319 PE       0.039600
   7914 C2         14.0230   38.0050   -8.7270 c3      1319 PE       0.039600
   7915 H11        12.4430   38.1250   -7.1870 hc      1320 PE      -0.019800
   7916 H12        13.8530   38.9950   -6.8470 hc      1320 PE      -0.019800
   7917 H21        11.8130   39.6750   -9.1470 hc      1320 PE      -0.019800
   7918 H22        11.5630   40.3650   -7.5970 hc      1320 PE      -0.019800
   7919 C1         13.1830   38.7650   -7.6770 c3      1320 PE       0.039600
   7920 C2         12.3630   40.0150   -8.2670 c3      1320 PE       0.039600
   7921 H11       -31.0870  -34.9150   -3.4070 hc      1321 PE      -0.019800
   7922 H12       -31.0670  -33.4850   -4.4570 hc      1321 PE      -0.019800
   7923 H21       -29.2170  -33.1450   -3.0670 hc      1321 PE      -0.019800
   7924 H22       -28.6170  -33.4650   -4.7070 hc      1321 PE      -0.019800
   7925 C1        -30.5570  -34.4250   -4.2370 c3      1321 PE       0.039600
   7926 C2        -29.1370  -33.9050   -3.8470 c3      1321 PE       0.039600
   7927 H11       -28.7470  -35.6050   -2.3870 hc      1322 PE      -0.019800
   7928 H12       -28.5370  -35.9450   -4.0470 hc      1322 PE      -0.019800
   7929 H21       -26.4670  -34.1650   -2.6370 hc      1322 PE      -0.019800
   7930 H22       -26.3670  -34.7150   -4.3170 hc      1322 PE      -0.019800
   7931 C1        -28.3370  -35.1650   -3.2970 c3      1322 PE       0.039600
   7932 C2        -26.7670  -34.9650   -3.3270 c3      1322 PE       0.039600
   7933 H11       -26.2870  -36.5550   -1.7770 hc      1323 PE      -0.019800
   7934 H12       -26.5970  -37.0850   -3.3270 hc      1323 PE      -0.019800
   7935 H21       -24.0470  -35.6550   -2.5670 hc      1323 PE      -0.019800
   7936 H22       -24.4470  -35.9350   -4.2070 hc      1323 PE      -0.019800
   7937 C1        -26.1070  -36.2450   -2.8170 c3      1323 PE       0.039600
   7938 C2        -24.6470  -36.3250   -3.1970 c3      1323 PE       0.039600
   7939 H11       -24.3170  -37.9850   -1.9370 hc      1324 PE      -0.019800
   7940 H12       -24.7670  -38.5450   -3.6170 hc      1324 PE      -0.019800
   7941 H21       -22.2570  -37.3850   -2.3870 hc      1324 PE      -0.019800
   7942 H22       -22.3570  -37.2550   -4.0970 hc      1324 PE      -0.019800
   7943 C1        -24.1870  -37.8350   -3.0170 c3      1324 PE       0.039600
   7944 C2        -22.6870  -37.8850   -3.2670 c3      1324 PE       0.039600
   7945 H11       -22.3370  -40.0050   -2.6470 hc      1325 PE      -0.019800
   7946 H12       -22.4270  -39.5950   -4.4170 hc      1325 PE      -0.019800
   7947 H21       -20.2070  -39.1650   -2.4770 hc      1325 PE      -0.019800
   7948 H22       -20.1770  -38.4050   -4.1170 hc      1325 PE      -0.019800
   7949 C1        -22.0470  -39.2950   -3.4270 c3      1325 PE       0.039600
   7950 C2        -20.5470  -39.2450   -3.5170 c3      1325 PE       0.039600
   7951 H11       -20.2270   38.6150   -3.4270 hc      1326 PE      -0.019800
   7952 H12       -20.5770   39.2350   -4.9970 hc      1326 PE      -0.019800
   7953 H21       -17.8770   40.0150   -3.7370 hc      1326 PE      -0.019800
   7954 H22       -18.3270   39.7450   -5.4670 hc      1326 PE      -0.019800
   7955 C1        -19.9870   39.4450   -4.1070 c3      1326 PE       0.039600
   7956 C2        -18.4370   39.3850   -4.4370 c3      1326 PE       0.039600
   7957 H11       -18.4670   37.5250   -3.3470 hc      1327 PE      -0.019800
   7958 H12       -18.3070   37.3450   -5.1570 hc      1327 PE      -0.019800
   7959 H21       -16.1270   38.3350   -3.2170 hc      1327 PE      -0.019800
   7960 H22       -16.0170   38.5150   -4.9370 hc      1327 PE      -0.019800
   7961 C1        -18.0370   37.9250   -4.2670 c3      1327 PE       0.039600
   7962 C2        -16.4770   37.8950   -4.1570 c3      1327 PE       0.039600
   7963 H11       -16.6070   35.7050   -3.7570 hc      1328 PE      -0.019800
   7964 H12       -16.0670   36.0750   -5.3270 hc      1328 PE      -0.019800
   7965 H21       -14.4470   36.2450   -2.7470 hc      1328 PE      -0.019800
   7966 H22       -13.7570   36.9050   -4.2270 hc      1328 PE      -0.019800
   7967 C1        -15.9670   36.4150   -4.2870 c3      1328 PE       0.039600
   7968 C2        -14.4770   36.1750   -3.8370 c3      1328 PE       0.039600
   7969 H11       -14.4170   34.0250   -3.7270 hc      1329 PE      -0.019800
   7970 H12       -13.9770   34.6750   -5.3270 hc      1329 PE      -0.019800
   7971 H21       -12.3070   34.6250   -2.8170 hc      1329 PE      -0.019800
   7972 H22       -11.7270   35.3950   -4.2870 hc      1329 PE      -0.019800
   7973 C1        -13.8470   34.8050   -4.2470 c3      1329 PE       0.039600
   7974 C2        -12.4070   34.6350   -3.9070 c3      1329 PE       0.039600
   7975 H11       -12.3670   32.4550   -3.6670 hc      1330 PE      -0.019800
   7976 H12       -12.1670   32.8350   -5.2970 hc      1330 PE      -0.019800
   7977 H21       -10.1070   33.5250   -3.1270 hc      1330 PE      -0.019800
   7978 H22        -9.9070   33.7350   -4.8970 hc      1330 PE      -0.019800
   7979 C1        -11.8670   33.1950   -4.3070 c3      1330 PE       0.039600
   7980 C2        -10.3670   33.1250   -4.1170 c3      1330 PE       0.039600
   7981 H11       -10.1070   31.1250   -3.4970 hc      1331 PE      -0.019800
   7982 H12        -9.9970   31.3450   -5.2370 hc      1331 PE      -0.019800
   7983 H21        -7.8870   32.1250   -3.2570 hc      1331 PE      -0.019800
   7984 H22        -7.6670   32.3050   -5.0370 hc      1331 PE      -0.019800
   7985 C1         -9.7270   31.7950   -4.2770 c3      1331 PE       0.039600
   7986 C2         -8.1570   31.7350   -4.2370 c3      1331 PE       0.039600
   7987 H11        -8.0670   29.7650   -3.3870 hc      1332 PE      -0.019800
   7988 H12        -7.8370   29.8850   -5.1370 hc      1332 PE      -0.019800
   7989 H21        -5.7170   30.8050   -3.0870 hc      1332 PE      -0.019800
   7990 H22        -5.4770   30.8350   -4.7870 hc      1332 PE      -0.019800
   7991 C1         -7.5870   30.3550   -4.1770 c3      1332 PE       0.039600
   7992 C2         -5.9670   30.2450   -3.9970 c3      1332 PE       0.039600
   7993 H11        -6.0670   28.1250   -3.4870 hc      1333 PE      -0.019800
   7994 H12        -5.6870   28.5050   -5.1270 hc      1333 PE      -0.019800
   7995 H21        -3.7670   29.0350   -2.9670 hc      1333 PE      -0.019800
   7996 H22        -3.4470   29.3350   -4.5870 hc      1333 PE      -0.019800
   7997 C1         -5.4870   28.8250   -4.0970 c3      1333 PE       0.039600
   7998 C2         -4.0570   28.6750   -3.9670 c3      1333 PE       0.039600
   7999 H11        -3.7570   26.5750   -3.4270 hc      1334 PE      -0.019800
   8000 H12        -3.9870   26.9250   -5.1270 hc      1334 PE      -0.019800
   8001 H21        -1.4870   27.5750   -3.4770 hc      1334 PE      -0.019800
   8002 H22        -1.5070   27.7350   -5.2570 hc      1334 PE      -0.019800
   8003 C1         -3.4970   27.2950   -4.2170 c3      1334 PE       0.039600
   8004 C2         -1.9570   27.2150   -4.3970 c3      1334 PE       0.039600
   8005 H11        -2.0870   25.0850   -3.8470 hc      1335 PE      -0.019800
   8006 H12        -1.7670   25.4450   -5.5270 hc      1335 PE      -0.019800
   8007 H21         0.2330   25.6250   -3.2970 hc      1335 PE      -0.019800
   8008 H22         0.5530   26.0650   -5.0370 hc      1335 PE      -0.019800
   8009 C1         -1.4970   25.7250   -4.4970 c3      1335 PE       0.039600
   8010 C2         -0.0670   25.4750   -4.3470 c3      1335 PE       0.039600
   8011 H11        -0.1770   23.3350   -3.7770 hc      1336 PE      -0.019800
   8012 H12        -0.0070   23.7150   -5.5270 hc      1336 PE      -0.019800
   8013 H21         2.2830   23.9450   -3.4770 hc      1336 PE      -0.019800
   8014 H22         2.3230   24.4650   -5.1770 hc      1336 PE      -0.019800
   8015 C1          0.3230   23.9650   -4.5170 c3      1336 PE       0.039600
   8016 C2          1.8630   23.7550   -4.4770 c3      1336 PE       0.039600
   8017 H11         1.8430   21.6950   -3.9970 hc      1337 PE      -0.019800
   8018 H12         1.8530   22.1250   -5.7770 hc      1337 PE      -0.019800
   8019 H21         4.1430   22.5450   -3.8070 hc      1337 PE      -0.019800
   8020 H22         4.1830   23.0550   -5.4870 hc      1337 PE      -0.019800
   8021 C1          2.2730   22.3350   -4.7870 c3      1337 PE       0.039600
   8022 C2          3.7930   22.2850   -4.8170 c3      1337 PE       0.039600
   8023 H11         3.7230   20.4550   -5.9370 hc      1338 PE      -0.019800
   8024 H12         5.3330   20.8250   -5.3670 hc      1338 PE      -0.019800
   8025 H21         3.4430   20.4550   -3.1070 hc      1338 PE      -0.019800
   8026 H22         5.0630   19.7250   -3.4170 hc      1338 PE      -0.019800
   8027 C1          4.2730   20.8450   -5.0670 c3      1338 PE       0.039600
   8028 C2          4.0730   19.9350   -3.8370 c3      1338 PE       0.039600
   8029 H11         3.8630   18.1350   -5.1370 hc      1339 PE      -0.019800
   8030 H12         3.6730   17.8650   -3.4270 hc      1339 PE      -0.019800
   8031 H21         1.7130   17.7250   -5.1170 hc      1339 PE      -0.019800
   8032 H22         1.6830   19.4150   -5.2770 hc      1339 PE      -0.019800
   8033 C1          3.4630   18.5850   -4.2270 c3      1339 PE       0.039600
   8034 C2          1.9330   18.6350   -4.5570 c3      1339 PE       0.039600
   8035 H11         1.0330   17.6450   -2.7970 hc      1340 PE      -0.019800
   8036 H12         1.2030   19.3650   -2.6170 hc      1340 PE      -0.019800
   8037 H21        -1.1270   18.7050   -2.7870 hc      1340 PE      -0.019800
   8038 H22        -0.9070   18.0150   -4.4070 hc      1340 PE      -0.019800
   8039 C1          0.9130   18.5850   -3.3370 c3      1340 PE       0.039600
   8040 C2         -0.5970   18.8250   -3.7370 c3      1340 PE       0.039600
   8041 H11        -0.7770   20.9950   -3.4370 hc      1341 PE      -0.019800
   8042 H12        -0.2470   20.5050   -5.0170 hc      1341 PE      -0.019800
   8043 H21        -2.9870   19.8450   -3.7470 hc      1341 PE      -0.019800
   8044 H22        -2.6270   19.8650   -5.4870 hc      1341 PE      -0.019800
   8045 C1         -0.9370   20.2350   -4.2070 c3      1341 PE       0.039600
   8046 C2         -2.4470   20.3850   -4.5370 c3      1341 PE       0.039600
   8047 H11        -2.3170   22.5750   -4.2470 hc      1342 PE      -0.019800
   8048 H12        -2.9870   22.0150   -5.8170 hc      1342 PE      -0.019800
   8049 H21        -4.5670   21.6350   -3.1670 hc      1342 PE      -0.019800
   8050 H22        -5.0170   21.2050   -4.8770 hc      1342 PE      -0.019800
   8051 C1         -2.9870   21.8550   -4.7370 c3      1342 PE       0.039600
   8052 C2         -4.4870   21.9150   -4.2270 c3      1342 PE       0.039600
   8053 H11        -4.6370   23.9750   -3.5270 hc      1343 PE      -0.019800
   8054 H12        -4.7070   23.8450   -5.2870 hc      1343 PE      -0.019800
   8055 H21        -6.7170   23.0650   -3.2070 hc      1343 PE      -0.019800
   8056 H22        -6.9470   22.8350   -4.9870 hc      1343 PE      -0.019800
   8057 C1         -5.0370   23.3750   -4.3570 c3      1343 PE       0.039600
   8058 C2         -6.5170   23.4750   -4.2070 c3      1343 PE       0.039600
   8059 H11        -6.5670   25.6150   -3.4870 hc      1344 PE      -0.019800
   8060 H12        -6.6570   25.4650   -5.1970 hc      1344 PE      -0.019800
   8061 H21        -8.9770   24.5250   -3.5670 hc      1344 PE      -0.019800
   8062 H22        -8.8270   24.5750   -5.2770 hc      1344 PE      -0.019800
   8063 C1         -7.0070   24.9850   -4.2770 c3      1344 PE       0.039600
   8064 C2         -8.5370   25.1250   -4.3670 c3      1344 PE       0.039600
   8065 H11        -8.5570   27.0850   -3.4770 hc      1345 PE      -0.019800
   8066 H12        -8.5470   27.1350   -5.2070 hc      1345 PE      -0.019800
   8067 H21       -10.8970   26.3950   -3.3670 hc      1345 PE      -0.019800
   8068 H22       -10.9470   25.9850   -5.0870 hc      1345 PE      -0.019800
   8069 C1         -8.9970   26.6150   -4.3570 c3      1345 PE       0.039600
   8070 C2        -10.5370   26.6950   -4.3570 c3      1345 PE       0.039600
   8071 H11       -10.6570   28.7450   -3.8070 hc      1346 PE      -0.019800
   8072 H12       -10.6270   28.6450   -5.5670 hc      1346 PE      -0.019800
   8073 H21       -12.8970   27.5750   -3.9470 hc      1346 PE      -0.019800
   8074 H22       -12.8770   27.9150   -5.6470 hc      1346 PE      -0.019800
   8075 C1        -10.9870   28.1450   -4.6570 c3      1346 PE       0.039600
   8076 C2        -12.4570   28.2450   -4.6870 c3      1346 PE       0.039600
   8077 H11       -12.6570   30.1350   -3.6770 hc      1347 PE      -0.019800
   8078 H12       -12.4870   30.3650   -5.3170 hc      1347 PE      -0.019800
   8079 H21       -15.1870   29.1750   -3.9470 hc      1347 PE      -0.019800
   8080 H22       -14.9170   29.5050   -5.6670 hc      1347 PE      -0.019800
   8081 C1        -13.0670   29.7550   -4.6170 c3      1347 PE       0.039600
   8082 C2        -14.6470   29.8150   -4.6470 c3      1347 PE       0.039600
   8083 H11       -15.0470   31.5450   -3.3570 hc      1348 PE      -0.019800
   8084 H12       -14.7170   31.9450   -5.0570 hc      1348 PE      -0.019800
   8085 H21       -17.3670   30.6350   -4.1470 hc      1348 PE      -0.019800
   8086 H22       -16.9370   31.2150   -5.7570 hc      1348 PE      -0.019800
   8087 C1        -15.2370   31.2450   -4.3970 c3      1348 PE       0.039600
   8088 C2        -16.7870   31.3850   -4.6770 c3      1348 PE       0.039600
   8089 H11       -17.3370   33.0250   -3.2770 hc      1349 PE      -0.019800
   8090 H12       -16.8970   33.5450   -4.9170 hc      1349 PE      -0.019800
   8091 H21       -19.4470   32.1650   -4.1970 hc      1349 PE      -0.019800
   8092 H22       -19.0670   32.5450   -5.9370 hc      1349 PE      -0.019800
   8093 C1        -17.4470   32.7950   -4.3370 c3      1349 PE       0.039600
   8094 C2        -18.9570   32.8650   -4.8870 c3      1349 PE       0.039600
   8095 H11       -19.0770   34.6050   -3.5770 hc      1350 PE      -0.019800
   8096 H12       -18.9770   34.9350   -5.2570 hc      1350 PE      -0.019800
   8097 H21       -21.1470   35.3950   -3.9170 hc      1350 PE      -0.019800
   8098 H22       -21.4270   34.7350   -5.5070 hc      1350 PE      -0.019800
   8099 C1        -19.4670   34.2650   -4.5470 c3      1350 PE       0.039600
   8100 C2        -20.9670   34.5050   -4.5370 c3      1350 PE       0.039600
   8101 H11       -14.3170   21.1950   -8.4370 hc      1351 PE      -0.019800
   8102 H12       -12.8270   21.8750   -7.7070 hc      1351 PE      -0.019800
   8103 H21       -13.1770   19.2150   -9.1070 hc      1351 PE      -0.019800
   8104 H22       -12.7870   19.4250   -7.5070 hc      1351 PE      -0.019800
   8105 C1        -13.2270   21.2550   -8.5270 c3      1351 PE       0.039600
   8106 C2        -12.5870   19.8850   -8.4770 c3      1351 PE       0.039600
   8107 H11       -10.7670   20.3850   -9.5870 hc      1352 PE      -0.019800
   8108 H12       -10.5870   20.4650   -7.8470 hc      1352 PE      -0.019800
   8109 H21       -10.8470   17.7150   -9.2770 hc      1352 PE      -0.019800
   8110 H22       -10.8870   18.0150   -7.5770 hc      1352 PE      -0.019800
   8111 C1        -11.0370   19.8750   -8.6570 c3      1352 PE       0.039600
   8112 C2        -10.5170   18.4350   -8.5170 c3      1352 PE       0.039600
   8113 H11        -8.5370   18.7750   -9.4370 hc      1353 PE      -0.019800
   8114 H12        -8.6770   19.0850   -7.7170 hc      1353 PE      -0.019800
   8115 H21        -8.9270   16.2650   -8.9770 hc      1353 PE      -0.019800
   8116 H22        -8.7670   16.6850   -7.2470 hc      1353 PE      -0.019800
   8117 C1         -8.9870   18.3850   -8.5070 c3      1353 PE       0.039600
   8118 C2         -8.4470   16.9450   -8.2670 c3      1353 PE       0.039600
   8119 H11        -6.5470   17.1250   -9.4870 hc      1354 PE      -0.019800
   8120 H12        -6.3170   17.5050   -7.8170 hc      1354 PE      -0.019800
   8121 H21        -6.8970   14.6950   -9.0370 hc      1354 PE      -0.019800
   8122 H22        -6.8370   14.8750   -7.3870 hc      1354 PE      -0.019800
   8123 C1         -6.8670   16.8250   -8.4870 c3      1354 PE       0.039600
   8124 C2         -6.4170   15.3350   -8.2870 c3      1354 PE       0.039600
   8125 H11        -4.4270   15.4350   -9.2570 hc      1355 PE      -0.019800
   8126 H12        -4.4170   15.7750   -7.5270 hc      1355 PE      -0.019800
   8127 H21        -4.8570   13.2050   -9.0570 hc      1355 PE      -0.019800
   8128 H22        -5.0670   13.3750   -7.3070 hc      1355 PE      -0.019800
   8129 C1         -4.8670   15.1450   -8.2970 c3      1355 PE       0.039600
   8130 C2         -4.4870   13.7250   -8.1670 c3      1355 PE       0.039600
   8131 H11        -2.4970   13.6550   -9.0070 hc      1356 PE      -0.019800
   8132 H12        -2.4870   14.0250   -7.2570 hc      1356 PE      -0.019800
   8133 H21        -3.0970   11.4050   -8.6270 hc      1356 PE      -0.019800
   8134 H22        -3.3870   11.7650   -6.9070 hc      1356 PE      -0.019800
   8135 C1         -2.9770   13.4550   -8.0470 c3      1356 PE       0.039600
   8136 C2         -2.6970   11.9250   -7.7470 c3      1356 PE       0.039600
   8137 H11        -1.1670   12.0550   -6.4770 hc      1357 PE      -0.019800
   8138 H12        -1.1270   10.5050   -7.3570 hc      1357 PE      -0.019800
   8139 H21        -0.5070   13.0450   -8.9870 hc      1357 PE      -0.019800
   8140 H22        -0.1170   11.3950   -9.3270 hc      1357 PE      -0.019800
   8141 C1         -1.2670   11.5950   -7.4670 c3      1357 PE       0.039600
   8142 C2         -0.2170   12.1050   -8.5070 c3      1357 PE       0.039600
   8143 H11         1.1130   13.1150   -7.0370 hc      1358 PE      -0.019800
   8144 H12         1.3530   11.4550   -7.0170 hc      1358 PE      -0.019800
   8145 H21         2.2130   13.2450   -9.4070 hc      1358 PE      -0.019800
   8146 H22         2.4130   11.5350   -9.4570 hc      1358 PE      -0.019800
   8147 C1          1.1830   12.2650   -7.7270 c3      1358 PE       0.039600
   8148 C2          2.3830   12.3750   -8.7570 c3      1358 PE       0.039600
   8149 H11         3.6030   13.5950   -7.4770 hc      1359 PE      -0.019800
   8150 H12         3.7830   11.8250   -7.3370 hc      1359 PE      -0.019800
   8151 H21         4.7230   13.4150   -9.7570 hc      1359 PE      -0.019800
   8152 H22         4.8830   11.7050   -9.5270 hc      1359 PE      -0.019800
   8153 C1          3.6730   12.6550   -8.0370 c3      1359 PE       0.039600
   8154 C2          4.8730   12.6550   -8.9770 c3      1359 PE       0.039600
   8155 H11         5.9830   13.9550   -7.6970 hc      1360 PE      -0.019800
   8156 H12         6.2030   12.2050   -7.3570 hc      1360 PE      -0.019800
   8157 H21         7.4530   13.8050   -9.8070 hc      1360 PE      -0.019800
   8158 H22         7.6830   12.1250   -9.4270 hc      1360 PE      -0.019800
   8159 C1          6.1430   12.9650   -8.1470 c3      1360 PE       0.039600
   8160 C2          7.4630   13.0950   -8.9670 c3      1360 PE       0.039600
   8161 H11         8.3630   14.5950   -7.6870 hc      1361 PE      -0.019800
   8162 H12         8.6930   12.8750   -7.1670 hc      1361 PE      -0.019800
   8163 H21         9.8830   14.3350   -9.4270 hc      1361 PE      -0.019800
   8164 H22         9.9630   12.5850   -9.3970 hc      1361 PE      -0.019800
   8165 C1          8.5830   13.5650   -8.0070 c3      1361 PE       0.039600
   8166 C2          9.9330   13.4750   -8.7470 c3      1361 PE       0.039600
   8167 H11        10.9830   14.3550   -7.0870 hc      1362 PE      -0.019800
   8168 H12        11.3730   12.7150   -7.3170 hc      1362 PE      -0.019800
   8169 H21        12.2930   14.5250   -9.4870 hc      1362 PE      -0.019800
   8170 H22        12.4930   12.7950   -9.3070 hc      1362 PE      -0.019800
   8171 C1         11.1630   13.6250   -7.8970 c3      1362 PE       0.039600
   8172 C2         12.4230   13.7250   -8.7370 c3      1362 PE       0.039600
   8173 H11        13.4830   14.9250   -7.3670 hc      1363 PE      -0.019800
   8174 H12        13.9330   13.1950   -7.2670 hc      1363 PE      -0.019800
   8175 H21        14.8030   15.1650   -9.5870 hc      1363 PE      -0.019800
   8176 H22        14.9130   13.4550   -9.6570 hc      1363 PE      -0.019800
   8177 C1         13.7130   14.0250   -7.9470 c3      1363 PE       0.039600
   8178 C2         14.8930   14.2850   -8.9370 c3      1363 PE       0.039600
   8179 H11        16.1030   15.2550   -7.4370 hc      1364 PE      -0.019800
   8180 H12        16.4130   13.5450   -7.6470 hc      1364 PE      -0.019800
   8181 H21        17.3430   15.7450   -9.5770 hc      1364 PE      -0.019800
   8182 H22        17.8030   13.9750   -9.6970 hc      1364 PE      -0.019800
   8183 C1         16.1930   14.4750   -8.1870 c3      1364 PE       0.039600
   8184 C2         17.5030   14.8050   -9.0370 c3      1364 PE       0.039600
   8185 H11        18.4230   16.0450   -7.5270 hc      1365 PE      -0.019800
   8186 H12        18.9030   14.2950   -7.4670 hc      1365 PE      -0.019800
   8187 H21        19.6530   16.2350   -9.8270 hc      1365 PE      -0.019800
   8188 H22        20.2630   14.6350   -9.5270 hc      1365 PE      -0.019800
   8189 C1         18.6430   15.1450   -8.1070 c3      1365 PE       0.039600
   8190 C2         19.9330   15.5450   -9.0170 c3      1365 PE       0.039600
   8191 H11        20.7530   16.9950   -7.5570 hc      1366 PE      -0.019800
   8192 H12        21.3230   15.2950   -7.4870 hc      1366 PE      -0.019800
   8193 H21        22.2630   17.4350   -9.4770 hc      1366 PE      -0.019800
   8194 H22        22.5030   15.7450   -9.8170 hc      1366 PE      -0.019800
   8195 C1         21.0830   16.1350   -8.1470 c3      1366 PE       0.039600
   8196 C2         22.3630   16.4550   -8.9970 c3      1366 PE       0.039600
   8197 H11        23.7330   15.5150   -7.5370 hc      1367 PE      -0.019800
   8198 H12        24.5630   16.4750   -8.7370 hc      1367 PE      -0.019800
   8199 H21        22.7230   17.3250   -6.3870 hc      1367 PE      -0.019800
   8200 H22        23.4430   18.5050   -7.5370 hc      1367 PE      -0.019800
   8201 C1         23.6530   16.4450   -8.1070 c3      1367 PE       0.039600
   8202 C2         23.5830   17.5350   -7.0370 c3      1367 PE       0.039600
   8203 H11        25.8230   17.4150   -6.6170 hc      1368 PE      -0.019800
   8204 H12        24.9730   18.7450   -5.8670 hc      1368 PE      -0.019800
   8205 H21        24.2330   15.9050   -4.9870 hc      1368 PE      -0.019800
   8206 H22        23.9930   17.4350   -4.2170 hc      1368 PE      -0.019800
   8207 C1         24.8830   17.6750   -6.1070 c3      1368 PE       0.039600
   8208 C2         24.7030   16.8950   -4.8570 c3      1368 PE       0.039600
   8209 H11        26.8530   16.3550   -4.6170 hc      1369 PE      -0.019800
   8210 H12        26.3530   17.8650   -3.9970 hc      1369 PE      -0.019800
   8211 H21        25.7530   15.0850   -2.9370 hc      1369 PE      -0.019800
   8212 H22        25.1530   16.5550   -2.0770 hc      1369 PE      -0.019800
   8213 C1         26.0330   16.8150   -4.0570 c3      1369 PE       0.039600
   8214 C2         25.9230   16.1450   -2.7470 c3      1369 PE       0.039600
   8215 H11        27.9730   15.6350   -2.6070 hc      1370 PE      -0.019800
   8216 H12        27.6730   17.0950   -1.6470 hc      1370 PE      -0.019800
   8217 H21        26.5630   14.2850   -0.8370 hc      1370 PE      -0.019800
   8218 H22        26.2630   15.8050   -0.0470 hc      1370 PE      -0.019800
   8219 C1         27.2630   16.1150   -1.9070 c3      1370 PE       0.039600
   8220 C2         27.0030   15.2650   -0.6470 c3      1370 PE       0.039600
   8221 H11        29.0930   14.5950   -0.4670 hc      1371 PE      -0.019800
   8222 H12        28.7230   15.9850    0.5530 hc      1371 PE      -0.019800
   8223 H21        27.9530   13.0450    0.9930 hc      1371 PE      -0.019800
   8224 H22        27.3230   14.2250    1.9430 hc      1371 PE      -0.019800
   8225 C1         28.3230   15.0350    0.1830 c3      1371 PE       0.039600
   8226 C2         28.2330   14.0350    1.3730 c3      1371 PE       0.039600
   8227 H11        30.4430   13.7850    1.6330 hc      1372 PE      -0.019800
   8228 H12        29.6530   15.0850    2.5330 hc      1372 PE      -0.019800
   8229 H21        28.4230   13.7850    4.1130 hc      1372 PE      -0.019800
   8230 H22        30.1930   13.6550    4.2230 hc      1372 PE      -0.019800
   8231 C1         29.5530   14.0450    2.2130 c3      1372 PE       0.039600
   8232 C2         29.3130   13.3750    3.6230 c3      1372 PE       0.039600
   8233 H11        28.4330   11.4750    2.8630 hc      1373 PE      -0.019800
   8234 H12        30.1130   11.2750    3.4530 hc      1373 PE      -0.019800
   8235 H21        29.2930   11.7550    5.8130 hc      1373 PE      -0.019800
   8236 H22        28.8930   10.2450    4.9930 hc      1373 PE      -0.019800
   8237 C1         29.1630   11.7950    3.6230 c3      1373 PE       0.039600
   8238 C2         28.6830   11.3250    5.0130 c3      1373 PE       0.039600
   8239 H11        27.1930   11.0350    6.4530 hc      1374 PE      -0.019800
   8240 H12        27.0930   12.5650    5.6130 hc      1374 PE      -0.019800
   8241 H21        26.6630   10.0850    3.9330 hc      1374 PE      -0.019800
   8242 H22        25.8230   11.6550    3.7030 hc      1374 PE      -0.019800
   8243 C1         27.2030   11.4850    5.4530 c3      1374 PE       0.039600
   8244 C2         26.1330   10.9050    4.4330 c3      1374 PE       0.039600
   8245 H11        25.0330    9.8350    5.9030 hc      1375 PE      -0.019800
   8246 H12        24.3230   11.4250    5.4330 hc      1375 PE      -0.019800
   8247 H21        24.5630    9.1850    3.4430 hc      1375 PE      -0.019800
   8248 H22        23.5930   10.6050    3.2230 hc      1375 PE      -0.019800
   8249 C1         24.8230   10.5150    5.0630 c3      1375 PE       0.039600
   8250 C2         23.8930    9.8650    3.9730 c3      1375 PE       0.039600
   8251 H11        23.0230    8.2350    5.1930 hc      1376 PE      -0.019800
   8252 H12        22.2830    9.7450    5.4930 hc      1376 PE      -0.019800
   8253 H21        21.8030    7.7150    3.0930 hc      1376 PE      -0.019800
   8254 H22        21.1430    9.3650    3.1630 hc      1376 PE      -0.019800
   8255 C1         22.6430    9.1150    4.6730 c3      1376 PE       0.039600
   8256 C2         21.5730    8.5550    3.7630 c3      1376 PE       0.039600
   8257 H11        20.5130    7.3450    5.3630 hc      1377 PE      -0.019800
   8258 H12        20.0030    8.9750    5.2630 hc      1377 PE      -0.019800
   8259 H21        19.4530    6.8850    3.0430 hc      1377 PE      -0.019800
   8260 H22        18.9630    8.4350    2.8030 hc      1377 PE      -0.019800
   8261 C1         20.3330    8.1450    4.6330 c3      1377 PE       0.039600
   8262 C2         19.1630    7.7550    3.6430 c3      1377 PE       0.039600
   8263 H11        18.0230    6.4850    5.0730 hc      1378 PE      -0.019800
   8264 H12        17.7630    8.2450    5.2630 hc      1378 PE      -0.019800
   8265 H21        16.7830    6.5850    2.9030 hc      1378 PE      -0.019800
   8266 H22        16.4430    8.1450    2.9130 hc      1378 PE      -0.019800
   8267 C1         17.8530    7.4250    4.5330 c3      1378 PE       0.039600
   8268 C2         16.6030    7.3550    3.6630 c3      1378 PE       0.039600
   8269 H11        15.3030    6.3550    5.2330 hc      1379 PE      -0.019800
   8270 H12        15.1130    8.0450    5.0430 hc      1379 PE      -0.019800
   8271 H21        14.0730    5.7650    3.1530 hc      1379 PE      -0.019800
   8272 H22        13.8530    7.4350    2.8930 hc      1379 PE      -0.019800
   8273 C1         15.2730    7.1350    4.4630 c3      1379 PE       0.039600
   8274 C2         13.9530    6.7050    3.7030 c3      1379 PE       0.039600
   8275 H11        12.8030    5.7250    5.3530 hc      1380 PE      -0.019800
   8276 H12        12.5330    7.5350    5.1230 hc      1380 PE      -0.019800
   8277 H21        11.6030    5.2550    3.4630 hc      1380 PE      -0.019800
   8278 H22        10.5730    6.2250    4.5530 hc      1380 PE      -0.019800
   8279 C1         12.7330    6.5650    4.6430 c3      1380 PE       0.039600
   8280 C2         11.4730    6.2350    3.9230 c3      1380 PE       0.039600
   8281 H11       -22.5670   38.8050    8.3530 hc      1381 PE      -0.019800
   8282 H12       -23.2870   37.1950    8.0330 hc      1381 PE      -0.019800
   8283 H21       -22.7870   39.4250    5.8230 hc      1381 PE      -0.019800
   8284 H22       -23.5470   37.9250    5.6030 hc      1381 PE      -0.019800
   8285 C1        -23.2070   38.2350    7.6730 c3      1381 PE       0.039600
   8286 C2        -22.7470   38.3850    6.1830 c3      1381 PE       0.039600
   8287 H11       -20.8170   37.6550    6.7130 hc      1382 PE      -0.019800
   8288 H12       -21.7370   36.7650    5.4130 hc      1382 PE      -0.019800
   8289 H21       -20.6870   39.6450    5.1830 hc      1382 PE      -0.019800
   8290 H22       -21.4670   38.5950    3.9330 hc      1382 PE      -0.019800
   8291 C1        -21.4470   37.7350    5.8230 c3      1382 PE       0.039600
   8292 C2        -20.7670   38.6250    4.7730 c3      1382 PE       0.039600
   8293 H11       -18.7170   38.3350    5.2830 hc      1383 PE      -0.019800
   8294 H12       -19.3170   37.0850    4.2030 hc      1383 PE      -0.019800
   8295 H21       -18.5770   39.9250    3.3530 hc      1383 PE      -0.019800
   8296 H22       -19.3970   38.8250    2.2630 hc      1383 PE      -0.019800
   8297 C1        -19.3270   38.1650    4.3930 c3      1383 PE       0.039600
   8298 C2        -18.7370   38.8550    3.1330 c3      1383 PE       0.039600
   8299 H11       -16.6770   38.3350    3.5830 hc      1384 PE      -0.019800
   8300 H12       -17.4570   37.2150    2.5230 hc      1384 PE      -0.019800
   8301 H21       -16.6470   40.1650    1.7130 hc      1384 PE      -0.019800
   8302 H22       -17.4270   39.0550    0.7030 hc      1384 PE      -0.019800
   8303 C1        -17.3670   38.2850    2.7330 c3      1384 PE       0.039600
   8304 C2        -16.7470   39.0750    1.5630 c3      1384 PE       0.039600
   8305 H11       -14.6270   38.4850    1.8630 hc      1385 PE      -0.019800
   8306 H12       -15.6070   37.3750    0.8230 hc      1385 PE      -0.019800
   8307 H21       -14.4870   40.1950    0.0430 hc      1385 PE      -0.019800
   8308 H22       -15.6770   39.3650   -0.8670 hc      1385 PE      -0.019800
   8309 C1        -15.4070   38.4250    1.0930 c3      1385 PE       0.039600
   8310 C2        -14.8470   39.1750   -0.1670 c3      1385 PE       0.039600
   8311 H11       -13.0570   38.1750    0.1530 hc      1386 PE      -0.019800
   8312 H12       -14.2670   37.3750   -0.9370 hc      1386 PE      -0.019800
   8313 H21       -12.5670   39.8350   -1.7870 hc      1386 PE      -0.019800
   8314 H22       -13.6570   38.8050   -2.7870 hc      1386 PE      -0.019800
   8315 C1        -13.7070   38.2950   -0.7270 c3      1386 PE       0.039600
   8316 C2        -12.9570   38.8250   -1.9370 c3      1386 PE       0.039600
   8317 H11       -10.9070   38.2250   -1.5070 hc      1387 PE      -0.019800
   8318 H12       -11.8570   36.9050   -2.1670 hc      1387 PE      -0.019800
   8319 H21       -11.2870   39.3150   -3.9970 hc      1387 PE      -0.019800
   8320 H22       -11.5170   37.6450   -4.4070 hc      1387 PE      -0.019800
   8321 C1        -11.6570   37.9850   -2.2570 c3      1387 PE       0.039600
   8322 C2        -11.0470   38.3050   -3.6670 c3      1387 PE       0.039600
   8323 H11        -9.2470   38.4250   -4.8870 hc      1388 PE      -0.019800
   8324 H12        -8.9770   38.8250   -3.1570 hc      1388 PE      -0.019800
   8325 H21        -9.3870   35.8350   -4.1370 hc      1388 PE      -0.019800
   8326 H22        -9.3170   36.4550   -2.4770 hc      1388 PE      -0.019800
   8327 C1         -9.4470   38.1150   -3.8570 c3      1388 PE       0.039600
   8328 C2         -8.9570   36.6150   -3.4970 c3      1388 PE       0.039600
   8329 H11        -7.2270   37.1050   -4.6170 hc      1389 PE      -0.019800
   8330 H12        -6.9870   37.0650   -2.8670 hc      1389 PE      -0.019800
   8331 H21        -7.2270   34.6950   -4.8170 hc      1389 PE      -0.019800
   8332 H22        -7.3870   34.4550   -3.0570 hc      1389 PE      -0.019800
   8333 C1         -7.4370   36.5150   -3.7070 c3      1389 PE       0.039600
   8334 C2         -6.9370   35.0850   -3.8370 c3      1389 PE       0.039600
   8335 H11        -4.9370   35.7750   -4.5370 hc      1390 PE      -0.019800
   8336 H12        -5.0070   35.3350   -2.8570 hc      1390 PE      -0.019800
   8337 H21        -5.2570   33.3450   -5.2670 hc      1390 PE      -0.019800
   8338 H22        -5.2870   32.9550   -3.5270 hc      1390 PE      -0.019800
   8339 C1         -5.3770   35.0450   -3.8470 c3      1390 PE       0.039600
   8340 C2         -4.8270   33.5950   -4.2870 c3      1390 PE       0.039600
   8341 H11        -3.0170   34.0650   -5.2370 hc      1391 PE      -0.019800
   8342 H12        -2.8270   33.9650   -3.4870 hc      1391 PE      -0.019800
   8343 H21        -3.1070   31.4750   -5.2170 hc      1391 PE      -0.019800
   8344 H22        -2.9470   31.6250   -3.4070 hc      1391 PE      -0.019800
   8345 C1         -3.2770   33.4650   -4.3570 c3      1391 PE       0.039600
   8346 C2         -2.6970   32.0550   -4.3870 c3      1391 PE       0.039600
   8347 H11        -0.8870   32.6750   -5.4270 hc      1392 PE      -0.019800
   8348 H12        -0.7770   32.6850   -3.6470 hc      1392 PE      -0.019800
   8349 H21        -1.0870   30.0850   -5.1970 hc      1392 PE      -0.019800
   8350 H22        -0.7570   30.3550   -3.4670 hc      1392 PE      -0.019800
   8351 C1         -1.1670   32.1350   -4.5070 c3      1392 PE       0.039600
   8352 C2         -0.5570   30.7250   -4.4770 c3      1392 PE       0.039600
   8353 H11         1.0830   30.9950   -5.7470 hc      1393 PE      -0.019800
   8354 H12         1.4830   31.4750   -4.0870 hc      1393 PE      -0.019800
   8355 H21         1.3830   28.7450   -5.3470 hc      1393 PE      -0.019800
   8356 H22         1.1530   28.6850   -3.6870 hc      1393 PE      -0.019800
   8357 C1          0.9630   30.7250   -4.6970 c3      1393 PE       0.039600
   8358 C2          1.6230   29.3250   -4.4470 c3      1393 PE       0.039600
   8359 H11         3.5630   30.0750   -5.0470 hc      1394 PE      -0.019800
   8360 H12         3.4430   29.8450   -3.3770 hc      1394 PE      -0.019800
   8361 H21         3.6030   27.5350   -5.2270 hc      1394 PE      -0.019800
   8362 H22         3.7330   27.4750   -3.4170 hc      1394 PE      -0.019800
   8363 C1          3.1330   29.3750   -4.3170 c3      1394 PE       0.039600
   8364 C2          3.9330   28.0650   -4.3170 c3      1394 PE       0.039600
   8365 H11         5.6730   28.7450   -5.3870 hc      1395 PE      -0.019800
   8366 H12         5.7930   28.9850   -3.5970 hc      1395 PE      -0.019800
   8367 H21         5.8330   26.2450   -4.9370 hc      1395 PE      -0.019800
   8368 H22         6.0330   26.6850   -3.2470 hc      1395 PE      -0.019800
   8369 C1          5.4330   28.3250   -4.4070 c3      1395 PE       0.039600
   8370 C2          6.2630   27.0050   -4.2770 c3      1395 PE       0.039600
   8371 H11         7.8430   27.7250   -5.3770 hc      1396 PE      -0.019800
   8372 H12         8.0630   27.8550   -3.6670 hc      1396 PE      -0.019800
   8373 H21         8.1930   25.1250   -5.1770 hc      1396 PE      -0.019800
   8374 H22         8.0930   25.2650   -3.4570 hc      1396 PE      -0.019800
   8375 C1          7.7530   27.1450   -4.4470 c3      1396 PE       0.039600
   8376 C2          8.4430   25.7950   -4.3470 c3      1396 PE       0.039600
   8377 H11        10.3630   26.6450   -4.9970 hc      1397 PE      -0.019800
   8378 H12        10.0230   26.5950   -3.1870 hc      1397 PE      -0.019800
   8379 H21        10.6030   24.3050   -5.1170 hc      1397 PE      -0.019800
   8380 H22        10.3330   24.0650   -3.4070 hc      1397 PE      -0.019800
   8381 C1          9.9630   26.0750   -4.1470 c3      1397 PE       0.039600
   8382 C2         10.7530   24.7750   -4.1370 c3      1397 PE       0.039600
   8383 H11        12.8130   25.5050   -4.6770 hc      1398 PE      -0.019800
   8384 H12        12.4230   25.4850   -2.9570 hc      1398 PE      -0.019800
   8385 H21        12.4030   22.8650   -3.1570 hc      1398 PE      -0.019800
   8386 H22        13.8730   23.6550   -3.1070 hc      1398 PE      -0.019800
   8387 C1         12.2730   24.9450   -3.9070 c3      1398 PE       0.039600
   8388 C2         12.9830   23.5950   -3.7470 c3      1398 PE       0.039600
   8389 H11        12.4730   23.2050   -5.7570 hc      1399 PE      -0.019800
   8390 H12        14.1830   23.7050   -5.5070 hc      1399 PE      -0.019800
   8391 H21        14.1030   21.1550   -6.2970 hc      1399 PE      -0.019800
   8392 H22        13.0130   20.8650   -4.8370 hc      1399 PE      -0.019800
   8393 C1         13.3930   23.0150   -5.1870 c3      1399 PE       0.039600
   8394 C2         13.8230   21.4550   -5.2770 c3      1399 PE       0.039600
   8395 H11        14.6430   21.3650   -3.4170 hc      1400 PE      -0.019800
   8396 H12        15.0730   20.0250   -4.5570 hc      1400 PE      -0.019800
   8397 H21        16.3630   22.8450   -4.4970 hc      1400 PE      -0.019800
   8398 H22        16.5230   21.6950   -5.7970 hc      1400 PE      -0.019800
   8399 C1         14.9530   21.1150   -4.4470 c3      1400 PE       0.039600
   8400 C2         16.3230   21.7750   -4.7270 c3      1400 PE       0.039600
   8401 H11        18.4030   21.8850   -3.9570 hc      1401 PE      -0.019800
   8402 H12        17.2230   21.0950   -2.8870 hc      1401 PE      -0.019800
   8403 H21        18.2930   19.9650   -5.4870 hc      1401 PE      -0.019800
   8404 H22        17.2030   19.0650   -4.5370 hc      1401 PE      -0.019800
   8405 C1         17.5430   21.2050   -3.9270 c3      1401 PE       0.039600
   8406 C2         18.0130   19.7950   -4.4370 c3      1401 PE       0.039600
   8407 H11        19.8930   19.9750   -3.4170 hc      1402 PE      -0.019800
   8408 H12        18.6430   18.9450   -2.6870 hc      1402 PE      -0.019800
   8409 H21        20.4030   18.2450   -5.1070 hc      1402 PE      -0.019800
   8410 H22        18.9730   17.3750   -4.6970 hc      1402 PE      -0.019800
   8411 C1         19.1230   19.2150   -3.6370 c3      1402 PE       0.039600
   8412 C2         19.8030   17.9350   -4.2470 c3      1402 PE       0.039600
   8413 H11        21.5930   17.7250   -3.0270 hc      1403 PE      -0.019800
   8414 H12        20.1130   16.9550   -2.3870 hc      1403 PE      -0.019800
   8415 H21        21.5930   15.1550   -3.1070 hc      1403 PE      -0.019800
   8416 H22        21.9730   16.1250   -4.6270 hc      1403 PE      -0.019800
   8417 C1         20.6930   17.1650   -3.2970 c3      1403 PE       0.039600
   8418 C2         21.2230   15.8250   -3.8870 c3      1403 PE       0.039600
   8419 H11        19.7430   15.2550   -5.4070 hc      1404 PE      -0.019800
   8420 H12        20.8730   14.0150   -5.0570 hc      1404 PE      -0.019800
   8421 H21        18.9430   14.6550   -2.7670 hc      1404 PE      -0.019800
   8422 H22        19.8330   13.2150   -3.0270 hc      1404 PE      -0.019800
   8423 C1         20.2830   14.7950   -4.5670 c3      1404 PE       0.039600
   8424 C2         19.2930   13.9950   -3.5670 c3      1404 PE       0.039600
   8425 H11        17.5930   14.2850   -4.8970 hc      1405 PE      -0.019800
   8426 H12        18.3930   12.6850   -5.1470 hc      1405 PE      -0.019800
   8427 H21        16.5830   13.5850   -2.8470 hc      1405 PE      -0.019800
   8428 H22        17.3130   11.9750   -3.0570 hc      1405 PE      -0.019800
   8429 C1         18.0530   13.4250   -4.4070 c3      1405 PE       0.039600
   8430 C2         16.9030   12.8450   -3.5770 c3      1405 PE       0.039600
   8431 H11        15.3030   13.4250   -4.8270 hc      1406 PE      -0.019800
   8432 H12        16.0630   11.9350   -5.4270 hc      1406 PE      -0.019800
   8433 H21        14.2330   12.3950   -2.9370 hc      1406 PE      -0.019800
   8434 H22        15.0130   10.8350   -3.3570 hc      1406 PE      -0.019800
   8435 C1         15.7430   12.4650   -4.5170 c3      1406 PE       0.039600
   8436 C2         14.6230   11.7850   -3.7570 c3      1406 PE       0.039600
   8437 H11        13.2630   12.2650   -5.3670 hc      1407 PE      -0.019800
   8438 H12        13.4530   10.5750   -5.1770 hc      1407 PE      -0.019800
   8439 H21        12.2030   11.9950   -2.9270 hc      1407 PE      -0.019800
   8440 H22        12.2430   10.2450   -3.2670 hc      1407 PE      -0.019800
   8441 C1         13.4230   11.4950   -4.5870 c3      1407 PE       0.039600
   8442 C2         12.1630   11.2350   -3.7170 c3      1407 PE       0.039600
   8443 H11        10.8430   12.1650   -5.1270 hc      1408 PE      -0.019800
   8444 H12        10.7730   10.4150   -5.2670 hc      1408 PE      -0.019800
   8445 H21         9.6930   11.8050   -2.8870 hc      1408 PE      -0.019800
   8446 H22         9.7530   10.0150   -3.1870 hc      1408 PE      -0.019800
   8447 C1         10.8630   11.2350   -4.5470 c3      1408 PE       0.039600
   8448 C2          9.6830   11.0150   -3.6370 c3      1408 PE       0.039600
   8449 H11         8.2530   11.9450   -5.0070 hc      1409 PE      -0.019800
   8450 H12         8.4630   10.2650   -5.1670 hc      1409 PE      -0.019800
   8451 H21         7.0230   11.7050   -2.9670 hc      1409 PE      -0.019800
   8452 H22         7.2730    9.9150   -2.9370 hc      1409 PE      -0.019800
   8453 C1          8.3930   11.0450   -4.3970 c3      1409 PE       0.039600
   8454 C2          7.1330   10.7950   -3.5670 c3      1409 PE       0.039600
   8455 H11         5.8030   11.4050   -5.1370 hc      1410 PE      -0.019800
   8456 H12         6.1030    9.6750   -5.1370 hc      1410 PE      -0.019800
   8457 H21         4.3230   10.9550   -3.1470 hc      1410 PE      -0.019800
   8458 H22         3.7730   10.3450   -4.6270 hc      1410 PE      -0.019800
   8459 C1          5.8530   10.5250   -4.4870 c3      1410 PE       0.039600
   8460 C2          4.5330   10.1550   -3.8570 c3      1410 PE       0.039600
   8461 H11       -38.6270  -17.5950   -3.3070 hc      1411 PE      -0.019800
   8462 H12       -39.7870  -16.5250   -3.9770 hc      1411 PE      -0.019800
   8463 H21       -40.7770  -18.7250   -2.1370 hc      1411 PE      -0.019800
   8464 H22       -40.4070  -18.9850   -3.7870 hc      1411 PE      -0.019800
   8465 C1        -39.5970  -17.1250   -3.0770 c3      1411 PE       0.039600
   8466 C2        -40.7070  -18.1950   -3.0870 c3      1411 PE       0.039600
   8467 H11        37.5330  -17.1350   -2.4670 hc      1412 PE      -0.019800
   8468 H12        37.9130  -17.0450   -4.2170 hc      1412 PE      -0.019800
   8469 H21        36.7330  -19.4650   -2.7870 hc      1412 PE      -0.019800
   8470 H22        37.3830  -19.5050   -4.4370 hc      1412 PE      -0.019800
   8471 C1         37.9330  -17.6850   -3.3270 c3      1412 PE       0.039600
   8472 C2         36.9530  -18.8550   -3.6670 c3      1412 PE       0.039600
   8473 H11        35.2330  -17.5650   -3.7270 hc      1413 PE      -0.019800
   8474 H12        35.7730  -18.0550   -5.3170 hc      1413 PE      -0.019800
   8475 H21        34.7330  -20.2050   -3.4270 hc      1413 PE      -0.019800
   8476 H22        34.9930  -20.2650   -5.2170 hc      1413 PE      -0.019800
   8477 C1         35.6230  -18.4150   -4.2970 c3      1413 PE       0.039600
   8478 C2         34.6630  -19.6450   -4.3670 c3      1413 PE       0.039600
   8479 H11        32.9230  -18.4950   -3.7470 hc      1414 PE      -0.019800
   8480 H12        33.0130  -18.6950   -5.4570 hc      1414 PE      -0.019800
   8481 H21        32.2230  -20.7750   -3.3370 hc      1414 PE      -0.019800
   8482 H22        32.4530  -21.2150   -5.0270 hc      1414 PE      -0.019800
   8483 C1         33.1630  -19.2350   -4.5170 c3      1414 PE       0.039600
   8484 C2         32.1230  -20.4050   -4.3570 c3      1414 PE       0.039600
   8485 H11        30.4530  -18.9750   -4.0670 hc      1415 PE      -0.019800
   8486 H12        30.5930  -19.4850   -5.6770 hc      1415 PE      -0.019800
   8487 H21        29.6930  -21.4550   -3.4570 hc      1415 PE      -0.019800
   8488 H22        29.7430  -21.8050   -5.1170 hc      1415 PE      -0.019800
   8489 C1         30.6830  -19.8750   -4.6570 c3      1415 PE       0.039600
   8490 C2         29.5530  -20.9750   -4.4270 c3      1415 PE       0.039600
   8491 H11        28.0530  -19.6750   -3.9170 hc      1416 PE      -0.019800
   8492 H12        28.0830  -20.0550   -5.7170 hc      1416 PE      -0.019800
   8493 H21        27.2630  -22.1450   -3.6070 hc      1416 PE      -0.019800
   8494 H22        27.1630  -22.3450   -5.2770 hc      1416 PE      -0.019800
   8495 C1         28.1430  -20.4450   -4.6970 c3      1416 PE       0.039600
   8496 C2         27.0930  -21.5550   -4.5170 c3      1416 PE       0.039600
   8497 H11        25.6830  -20.2550   -3.6470 hc      1417 PE      -0.019800
   8498 H12        25.5230  -20.4050   -5.4370 hc      1417 PE      -0.019800
   8499 H21        24.6930  -22.5150   -3.3270 hc      1417 PE      -0.019800
   8500 H22        24.6730  -22.8850   -5.0070 hc      1417 PE      -0.019800
   8501 C1         25.6430  -20.9550   -4.4970 c3      1417 PE       0.039600
   8502 C2         24.5530  -22.0350   -4.3070 c3      1417 PE       0.039600
   8503 H11        23.0630  -20.7750   -3.5570 hc      1418 PE      -0.019800
   8504 H12        23.0730  -20.9350   -5.3470 hc      1418 PE      -0.019800
   8505 H21        22.0930  -23.0650   -3.2870 hc      1418 PE      -0.019800
   8506 H22        22.1430  -23.3750   -4.9970 hc      1418 PE      -0.019800
   8507 C1         23.1330  -21.4850   -4.3970 c3      1418 PE       0.039600
   8508 C2         22.0130  -22.5750   -4.2670 c3      1418 PE       0.039600
   8509 H11        20.4930  -21.2550   -3.6170 hc      1419 PE      -0.019800
   8510 H12        20.5330  -21.7750   -5.4470 hc      1419 PE      -0.019800
   8511 H21        19.5630  -23.5950   -3.2670 hc      1419 PE      -0.019800
   8512 H22        19.5930  -23.8650   -4.9970 hc      1419 PE      -0.019800
   8513 C1         20.5930  -22.0350   -4.3870 c3      1419 PE       0.039600
   8514 C2         19.4230  -23.0950   -4.2370 c3      1419 PE       0.039600
   8515 H11        17.7530  -21.7150   -3.7570 hc      1420 PE      -0.019800
   8516 H12        18.0030  -21.8950   -5.3970 hc      1420 PE      -0.019800
   8517 H21        17.0130  -24.1850   -3.4970 hc      1420 PE      -0.019800
   8518 H22        17.2130  -24.1850   -5.1770 hc      1420 PE      -0.019800
   8519 C1         18.0330  -22.4950   -4.4870 c3      1420 PE       0.039600
   8520 C2         16.9230  -23.5150   -4.3570 c3      1420 PE       0.039600
   8521 H11        15.5930  -22.0650   -3.8370 hc      1421 PE      -0.019800
   8522 H12        15.4530  -22.5350   -5.6170 hc      1421 PE      -0.019800
   8523 H21        14.3630  -24.1550   -3.1770 hc      1421 PE      -0.019800
   8524 H22        14.4730  -24.6650   -4.8170 hc      1421 PE      -0.019800
   8525 C1         15.5330  -22.8750   -4.5770 c3      1421 PE       0.039600
   8526 C2         14.3330  -23.7750   -4.2070 c3      1421 PE       0.039600
   8527 H11        12.9730  -22.2950   -3.6870 hc      1422 PE      -0.019800
   8528 H12        12.9430  -22.6150   -5.3670 hc      1422 PE      -0.019800
   8529 H21        11.9430  -24.5750   -3.2670 hc      1422 PE      -0.019800
   8530 H22        12.2630  -24.9450   -4.9870 hc      1422 PE      -0.019800
   8531 C1         12.9530  -23.1250   -4.3970 c3      1422 PE       0.039600
   8532 C2         11.9530  -24.1650   -4.2870 c3      1422 PE       0.039600
   8533 H11        10.3830  -22.8550   -3.7370 hc      1423 PE      -0.019800
   8534 H12        10.5830  -23.1950   -5.5270 hc      1423 PE      -0.019800
   8535 H21         9.4030  -25.1950   -3.5470 hc      1423 PE      -0.019800
   8536 H22         9.5730  -25.3850   -5.3370 hc      1423 PE      -0.019800
   8537 C1         10.5630  -23.6150   -4.5170 c3      1423 PE       0.039600
   8538 C2          9.4030  -24.6850   -4.5070 c3      1423 PE       0.039600
   8539 H11         7.9130  -23.3450   -3.7570 hc      1424 PE      -0.019800
   8540 H12         7.9130  -23.3950   -5.4470 hc      1424 PE      -0.019800
   8541 H21         6.8730  -25.4450   -3.3570 hc      1424 PE      -0.019800
   8542 H22         6.9430  -25.7250   -5.2070 hc      1424 PE      -0.019800
   8543 C1          8.0230  -24.0550   -4.5870 c3      1424 PE       0.039600
   8544 C2          6.8230  -25.0350   -4.3670 c3      1424 PE       0.039600
   8545 H11         5.3030  -23.6050   -3.7970 hc      1425 PE      -0.019800
   8546 H12         5.3530  -23.8150   -5.4970 hc      1425 PE      -0.019800
   8547 H21         4.4430  -26.0350   -3.5570 hc      1425 PE      -0.019800
   8548 H22         4.6130  -26.1050   -5.3970 hc      1425 PE      -0.019800
   8549 C1          5.4430  -24.3750   -4.5570 c3      1425 PE       0.039600
   8550 C2          4.3530  -25.5150   -4.5170 c3      1425 PE       0.039600
   8551 H11         2.7730  -24.1250   -3.9170 hc      1426 PE      -0.019800
   8552 H12         2.7930  -24.3550   -5.5770 hc      1426 PE      -0.019800
   8553 H21         1.8630  -26.5850   -3.6070 hc      1426 PE      -0.019800
   8554 H22         2.0430  -26.7150   -5.4170 hc      1426 PE      -0.019800
   8555 C1          2.9130  -24.9250   -4.6470 c3      1426 PE       0.039600
   8556 C2          1.8430  -26.0450   -4.5670 c3      1426 PE       0.039600
   8557 H11         0.4130  -24.8750   -3.8670 hc      1427 PE      -0.019800
   8558 H12         0.3830  -24.8750   -5.5070 hc      1427 PE      -0.019800
   8559 H21        -0.5070  -27.2150   -3.6470 hc      1427 PE      -0.019800
   8560 H22        -0.8170  -27.1750   -5.4270 hc      1427 PE      -0.019800
   8561 C1          0.4030  -25.6050   -4.6870 c3      1427 PE       0.039600
   8562 C2         -0.7470  -26.5750   -4.5170 c3      1427 PE       0.039600
   8563 H11        -2.1370  -25.6450   -3.1570 hc      1428 PE      -0.019800
   8564 H12        -2.2170  -25.1850   -4.9370 hc      1428 PE      -0.019800
   8565 H21        -3.1370  -27.6350   -3.4470 hc      1428 PE      -0.019800
   8566 H22        -3.1970  -27.7050   -5.2870 hc      1428 PE      -0.019800
   8567 C1         -2.1470  -25.9950   -4.1970 c3      1428 PE       0.039600
   8568 C2         -3.2770  -27.0850   -4.3870 c3      1428 PE       0.039600
   8569 H11        -4.6770  -25.8350   -3.5270 hc      1429 PE      -0.019800
   8570 H12        -4.7470  -25.7650   -5.2870 hc      1429 PE      -0.019800
   8571 H21        -5.5270  -28.0550   -3.3070 hc      1429 PE      -0.019800
   8572 H22        -5.7670  -28.2450   -5.1170 hc      1429 PE      -0.019800
   8573 C1         -4.6370  -26.4450   -4.4370 c3      1429 PE       0.039600
   8574 C2         -5.6870  -27.5450   -4.2670 c3      1429 PE       0.039600
   8575 H11        -7.1970  -26.2550   -3.3170 hc      1430 PE      -0.019800
   8576 H12        -7.2270  -26.1850   -5.0070 hc      1430 PE      -0.019800
   8577 H21        -8.2970  -28.4350   -3.1270 hc      1430 PE      -0.019800
   8578 H22        -8.2170  -28.7150   -4.7870 hc      1430 PE      -0.019800
   8579 C1         -7.1070  -26.9050   -4.1970 c3      1430 PE       0.039600
   8580 C2         -8.2870  -27.8950   -4.0770 c3      1430 PE       0.039600
   8581 H11        -9.9170  -26.4750   -3.5870 hc      1431 PE      -0.019800
   8582 H12        -9.6270  -26.7150   -5.3170 hc      1431 PE      -0.019800
   8583 H21       -11.0370  -28.6850   -3.3970 hc      1431 PE      -0.019800
   8584 H22       -10.7270  -28.9550   -5.1870 hc      1431 PE      -0.019800
   8585 C1         -9.6570  -27.2250   -4.3470 c3      1431 PE       0.039600
   8586 C2        -10.8770  -28.2250   -4.3770 c3      1431 PE       0.039600
   8587 H11       -12.3970  -26.6350   -3.9070 hc      1432 PE      -0.019800
   8588 H12       -12.1370  -27.1450   -5.6470 hc      1432 PE      -0.019800
   8589 H21       -13.3370  -28.8450   -3.3370 hc      1432 PE      -0.019800
   8590 H22       -13.2970  -29.3750   -4.9270 hc      1432 PE      -0.019800
   8591 C1        -12.2470  -27.4650   -4.6070 c3      1432 PE       0.039600
   8592 C2        -13.3970  -28.4450   -4.3570 c3      1432 PE       0.039600
   8593 H11       -14.8870  -27.1550   -3.6170 hc      1433 PE      -0.019800
   8594 H12       -15.0070  -27.1950   -5.3770 hc      1433 PE      -0.019800
   8595 H21       -15.8470  -29.3950   -3.4570 hc      1433 PE      -0.019800
   8596 H22       -15.7070  -29.6850   -5.2070 hc      1433 PE      -0.019800
   8597 C1        -14.8770  -27.8250   -4.4870 c3      1433 PE       0.039600
   8598 C2        -15.9170  -28.9250   -4.4470 c3      1433 PE       0.039600
   8599 H11       -17.6770  -27.7350   -3.8270 hc      1434 PE      -0.019800
   8600 H12       -17.7270  -28.0650   -5.5670 hc      1434 PE      -0.019800
   8601 H21       -18.4370  -29.7750   -3.2870 hc      1434 PE      -0.019800
   8602 H22       -18.2270  -30.3950   -4.9270 hc      1434 PE      -0.019800
   8603 C1        -17.4070  -28.4750   -4.5970 c3      1434 PE       0.039600
   8604 C2        -18.4670  -29.4950   -4.3470 c3      1434 PE       0.039600
   8605 H11       -20.1970  -28.2550   -3.9570 hc      1435 PE      -0.019800
   8606 H12       -20.0970  -28.6350   -5.6170 hc      1435 PE      -0.019800
   8607 H21       -20.9570  -30.5850   -3.3770 hc      1435 PE      -0.019800
   8608 H22       -20.9170  -30.9950   -5.0870 hc      1435 PE      -0.019800
   8609 C1        -19.9270  -29.0850   -4.6270 c3      1435 PE       0.039600
   8610 C2        -21.0270  -30.1650   -4.3870 c3      1435 PE       0.039600
   8611 H11       -22.3070  -28.4650   -4.1870 hc      1436 PE      -0.019800
   8612 H12       -22.3870  -29.1750   -5.8070 hc      1436 PE      -0.019800
   8613 H21       -23.5770  -30.3150   -3.2470 hc      1436 PE      -0.019800
   8614 H22       -23.5370  -31.2150   -4.8870 hc      1436 PE      -0.019800
   8615 C1        -22.3470  -29.4150   -4.7270 c3      1436 PE       0.039600
   8616 C2        -23.5470  -30.2550   -4.3370 c3      1436 PE       0.039600
   8617 H11       -25.0670  -28.6950   -4.0870 hc      1437 PE      -0.019800
   8618 H12       -24.8270  -29.2050   -5.7770 hc      1437 PE      -0.019800
   8619 H21       -26.2370  -30.6150   -3.4570 hc      1437 PE      -0.019800
   8620 H22       -26.0170  -31.3950   -5.0270 hc      1437 PE      -0.019800
   8621 C1        -24.8570  -29.5450   -4.7370 c3      1437 PE       0.039600
   8622 C2        -26.1170  -30.4150   -4.5270 c3      1437 PE       0.039600
   8623 H11       -27.3170  -28.5450   -4.9670 hc      1438 PE      -0.019800
   8624 H12       -27.5070  -29.8350   -6.0770 hc      1438 PE      -0.019800
   8625 H21       -28.5170  -30.1350   -3.1170 hc      1438 PE      -0.019800
   8626 H22       -28.7670  -31.2250   -4.4770 hc      1438 PE      -0.019800
   8627 C1        -27.4170  -29.6350   -4.9970 c3      1438 PE       0.039600
   8628 C2        -28.6170  -30.1650   -4.2170 c3      1438 PE       0.039600
   8629 H11       -29.9770  -28.6150   -3.8670 hc      1439 PE      -0.019800
   8630 H12       -29.9070  -29.0550   -5.6370 hc      1439 PE      -0.019800
   8631 H21       -31.1070  -30.4950   -3.2470 hc      1439 PE      -0.019800
   8632 H22       -31.2370  -31.0850   -4.9570 hc      1439 PE      -0.019800
   8633 C1        -29.9270  -29.4250   -4.5970 c3      1439 PE       0.039600
   8634 C2        -31.1570  -30.2050   -4.3070 c3      1439 PE       0.039600
   8635 H11       -32.4170  -28.3950   -4.0570 hc      1440 PE      -0.019800
   8636 H12       -32.4270  -29.0750   -5.6770 hc      1440 PE      -0.019800
   8637 H21       -33.7570  -31.0950   -4.9570 hc      1440 PE      -0.019800
   8638 H22       -34.6770  -29.6450   -4.2770 hc      1440 PE      -0.019800
   8639 C1        -32.3770  -29.3350   -4.6170 c3      1440 PE       0.039600
   8640 C2        -33.7370  -30.2150   -4.3070 c3      1440 PE       0.039600
   8641 H11        35.8530  -23.4450    9.3630 hc      1441 PE      -0.019800
   8642 H12        35.3930  -25.1450    9.7330 hc      1441 PE      -0.019800
   8643 H21        34.1430  -25.1450    7.3630 hc      1441 PE      -0.019800
   8644 H22        34.2330  -23.3950    7.4630 hc      1441 PE      -0.019800
   8645 C1         35.5030  -24.3950    8.9330 c3      1441 PE       0.039600
   8646 C2         34.2730  -24.3050    8.0630 c3      1441 PE       0.039600
   8647 H11        32.8630  -25.3250    9.3630 hc      1442 PE      -0.019800
   8648 H12        33.0930  -23.5750    9.6830 hc      1442 PE      -0.019800
   8649 H21        31.5330  -24.5250    7.2630 hc      1442 PE      -0.019800
   8650 H22        31.9230  -22.8750    7.8330 hc      1442 PE      -0.019800
   8651 C1         32.9330  -24.3350    8.9130 c3      1442 PE       0.039600
   8652 C2         31.7030  -23.9050    8.1530 c3      1442 PE       0.039600
   8653 H11        30.4530  -24.6350    9.7430 hc      1443 PE      -0.019800
   8654 H12        30.4730  -22.8650    9.7130 hc      1443 PE      -0.019800
   8655 H21        29.3230  -25.0350    7.8830 hc      1443 PE      -0.019800
   8656 H22        29.0130  -23.2650    7.5430 hc      1443 PE      -0.019800
   8657 C1         30.4530  -23.7650    9.0830 c3      1443 PE       0.039600
   8658 C2         29.1630  -24.0350    8.3130 c3      1443 PE       0.039600
   8659 H11        28.1730  -24.9050   10.0330 hc      1444 PE      -0.019800
   8660 H12        27.9730  -23.1550    9.8330 hc      1444 PE      -0.019800
   8661 H21        26.7930  -25.3750    8.0230 hc      1444 PE      -0.019800
   8662 H22        26.3530  -23.6550    7.8530 hc      1444 PE      -0.019800
   8663 C1         27.9530  -24.1150    9.2930 c3      1444 PE       0.039600
   8664 C2         26.6130  -24.4350    8.5730 c3      1444 PE       0.039600
   8665 H11        25.7730  -25.5150   10.1430 hc      1445 PE      -0.019800
   8666 H12        25.4030  -23.8350   10.1330 hc      1445 PE      -0.019800
   8667 H21        24.2830  -25.7850    7.9830 hc      1445 PE      -0.019800
   8668 H22        24.0430  -23.9550    8.0730 hc      1445 PE      -0.019800
   8669 C1         25.4530  -24.7050    9.4730 c3      1445 PE       0.039600
   8670 C2         24.1830  -24.8950    8.6230 c3      1445 PE       0.039600
   8671 H11        22.9730  -26.1650    9.9330 hc      1446 PE      -0.019800
   8672 H12        22.8030  -24.4050   10.2430 hc      1446 PE      -0.019800
   8673 H21        21.8230  -26.0950    7.7030 hc      1446 PE      -0.019800
   8674 H22        21.6230  -24.3250    8.0830 hc      1446 PE      -0.019800
   8675 C1         22.8830  -25.1750    9.4630 c3      1446 PE       0.039600
   8676 C2         21.6830  -25.3450    8.4830 c3      1446 PE       0.039600
   8677 H11        20.6030  -26.0950   10.1130 hc      1447 PE      -0.019800
   8678 H12        20.1730  -24.4250    9.6230 hc      1447 PE      -0.019800
   8679 H21        19.4430  -26.8450    7.9030 hc      1447 PE      -0.019800
   8680 H22        18.8430  -25.1950    7.7730 hc      1447 PE      -0.019800
   8681 C1         20.4030  -25.4350    9.2530 c3      1447 PE       0.039600
   8682 C2         19.1730  -25.9550    8.4930 c3      1447 PE       0.039600
   8683 H11        18.1430  -27.1750    9.9830 hc      1448 PE      -0.019800
   8684 H12        17.7930  -25.4950   10.0930 hc      1448 PE      -0.019800
   8685 H21        16.7830  -27.3550    7.8230 hc      1448 PE      -0.019800
   8686 H22        16.6730  -25.5850    7.9130 hc      1448 PE      -0.019800
   8687 C1         17.9230  -26.2950    9.3630 c3      1448 PE       0.039600
   8688 C2         16.6430  -26.5050    8.5130 c3      1448 PE       0.039600
   8689 H11        15.3730  -27.5750    9.9730 hc      1449 PE      -0.019800
   8690 H12        15.1730  -25.7950    9.8730 hc      1449 PE      -0.019800
   8691 H21        14.0930  -27.7050    7.7130 hc      1449 PE      -0.019800
   8692 H22        14.0730  -25.9150    7.7530 hc      1449 PE      -0.019800
   8693 C1         15.3630  -26.7050    9.3030 c3      1449 PE       0.039600
   8694 C2         14.0730  -26.8250    8.3630 c3      1449 PE       0.039600
   8695 H11        12.9030  -27.7650    9.6830 hc      1450 PE      -0.019800
   8696 H12        12.7230  -25.8150    9.6230 hc      1450 PE      -0.019800
   8697 H21        11.7730  -27.8750    7.6430 hc      1450 PE      -0.019800
   8698 H22        11.3730  -26.1450    7.5730 hc      1450 PE      -0.019800
   8699 C1         12.8230  -26.8050    9.1530 c3      1450 PE       0.039600
   8700 C2         11.5330  -26.9850    8.2530 c3      1450 PE       0.039600
   8701 H11        10.3730  -28.2150    9.7330 hc      1451 PE      -0.019800
   8702 H12        10.1930  -26.5250    9.9030 hc      1451 PE      -0.019800
   8703 H21         9.0430  -28.0050    7.5130 hc      1451 PE      -0.019800
   8704 H22         8.7530  -26.3450    7.7930 hc      1451 PE      -0.019800
   8705 C1         10.2830  -27.3050    9.1330 c3      1451 PE       0.039600
   8706 C2          9.0030  -27.2650    8.3330 c3      1451 PE       0.039600
   8707 H11         7.9330  -28.4850    9.7130 hc      1452 PE      -0.019800
   8708 H12         7.7130  -26.6850    9.9630 hc      1452 PE      -0.019800
   8709 H21         6.6430  -28.3950    7.6030 hc      1452 PE      -0.019800
   8710 H22         6.4430  -26.6350    7.7530 hc      1452 PE      -0.019800
   8711 C1          7.7830  -27.5050    9.2430 c3      1452 PE       0.039600
   8712 C2          6.5430  -27.5750    8.3230 c3      1452 PE       0.039600
   8713 H11         5.5430  -28.7750    9.6930 hc      1453 PE      -0.019800
   8714 H12         5.1130  -27.0150    9.8430 hc      1453 PE      -0.019800
   8715 H21         4.2630  -28.9950    7.6430 hc      1453 PE      -0.019800
   8716 H22         3.9430  -27.2150    7.6030 hc      1453 PE      -0.019800
   8717 C1          5.2730  -27.8550    9.1530 c3      1453 PE       0.039600
   8718 C2          4.0430  -28.1050    8.2430 c3      1453 PE       0.039600
   8719 H11         2.8630  -29.2550    9.6730 hc      1454 PE      -0.019800
   8720 H12         2.4930  -27.5050    9.7730 hc      1454 PE      -0.019800
   8721 H21         1.5930  -29.5950    7.8230 hc      1454 PE      -0.019800
   8722 H22         1.6630  -27.9350    7.2730 hc      1454 PE      -0.019800
   8723 C1          2.7530  -28.3250    9.0930 c3      1454 PE       0.039600
   8724 C2          1.5530  -28.5550    8.1730 c3      1454 PE       0.039600
   8725 H11         0.0830  -29.2050    9.5030 hc      1455 PE      -0.019800
   8726 H12         0.0630  -27.4350    9.3030 hc      1455 PE      -0.019800
   8727 H21        -0.9770  -29.5850    7.3630 hc      1455 PE      -0.019800
   8728 H22        -1.1370  -27.7850    7.1330 hc      1455 PE      -0.019800
   8729 C1          0.1430  -28.3850    8.7730 c3      1455 PE       0.039600
   8730 C2         -1.0670  -28.6050    7.8530 c3      1455 PE       0.039600
   8731 H11        -2.1070  -29.4450    9.5430 hc      1456 PE      -0.019800
   8732 H12        -2.4370  -27.7650    9.4230 hc      1456 PE      -0.019800
   8733 H21        -3.4170  -30.0150    7.6630 hc      1456 PE      -0.019800
   8734 H22        -3.7970  -28.4250    7.1930 hc      1456 PE      -0.019800
   8735 C1         -2.2770  -28.6550    8.8030 c3      1456 PE       0.039600
   8736 C2         -3.5570  -29.0150    8.0930 c3      1456 PE       0.039600
   8737 H11        -4.6170  -29.8050    9.8130 hc      1457 PE      -0.019800
   8738 H12        -5.0370  -28.1650    9.5530 hc      1457 PE      -0.019800
   8739 H21        -5.9770  -30.7050    8.1630 hc      1457 PE      -0.019800
   8740 H22        -6.1070  -29.1450    7.2430 hc      1457 PE      -0.019800
   8741 C1         -4.7770  -29.0850    9.0030 c3      1457 PE       0.039600
   8742 C2         -6.0470  -29.6150    8.2330 c3      1457 PE       0.039600
   8743 H11        -7.4270  -29.8950    9.8230 hc      1458 PE      -0.019800
   8744 H12        -7.5270  -28.2450    9.1430 hc      1458 PE      -0.019800
   8745 H21        -8.6070  -30.7950    7.6630 hc      1458 PE      -0.019800
   8746 H22        -8.6670  -29.1850    7.1530 hc      1458 PE      -0.019800
   8747 C1         -7.3770  -29.3050    8.9030 c3      1458 PE       0.039600
   8748 C2         -8.6370  -29.7750    8.0730 c3      1458 PE       0.039600
   8749 H11       -10.0170  -29.9750    9.8130 hc      1459 PE      -0.019800
   8750 H12       -10.1470  -28.4350    8.9530 hc      1459 PE      -0.019800
   8751 H21       -11.1570  -31.0450    7.8630 hc      1459 PE      -0.019800
   8752 H22       -11.1570  -29.4550    7.0730 hc      1459 PE      -0.019800
   8753 C1         -9.9870  -29.5050    8.8230 c3      1459 PE       0.039600
   8754 C2        -11.2170  -29.9650    8.0430 c3      1459 PE       0.039600
   8755 H11       -12.5370  -30.1750    9.7830 hc      1460 PE      -0.019800
   8756 H12       -12.4170  -28.5150    9.1830 hc      1460 PE      -0.019800
   8757 H21       -13.6870  -30.7750    7.6930 hc      1460 PE      -0.019800
   8758 H22       -13.7870  -29.0650    7.2930 hc      1460 PE      -0.019800
   8759 C1        -12.4570  -29.5650    8.8730 c3      1460 PE       0.039600
   8760 C2        -13.7370  -29.7750    8.1330 c3      1460 PE       0.039600
   8761 H11       -15.1770  -30.7050    9.4030 hc      1461 PE      -0.019800
   8762 H12       -15.0770  -28.9550    9.6630 hc      1461 PE      -0.019800
   8763 H21       -16.4170  -30.3050    7.2530 hc      1461 PE      -0.019800
   8764 H22       -16.0970  -28.6550    7.5030 hc      1461 PE      -0.019800
   8765 C1        -15.0470  -29.7450    8.9030 c3      1461 PE       0.039600
   8766 C2        -16.3270  -29.5650    8.0630 c3      1461 PE       0.039600
   8767 H11       -17.7670  -30.2250    9.6830 hc      1462 PE      -0.019800
   8768 H12       -17.5470  -28.6350    9.6730 hc      1462 PE      -0.019800
   8769 H21       -18.9170  -29.9650    7.3130 hc      1462 PE      -0.019800
   8770 H22       -18.7770  -28.2150    7.5730 hc      1462 PE      -0.019800
   8771 C1        -17.6370  -29.4350    8.9330 c3      1462 PE       0.039600
   8772 C2        -18.8570  -29.1850    8.0830 c3      1462 PE       0.039600
   8773 H11       -20.0670  -29.9950    9.6430 hc      1463 PE      -0.019800
   8774 H12       -20.1270  -28.2250    9.6530 hc      1463 PE      -0.019800
   8775 H21       -21.5570  -30.1450    7.5830 hc      1463 PE      -0.019800
   8776 H22       -21.2570  -28.5050    7.2830 hc      1463 PE      -0.019800
   8777 C1        -20.0970  -29.1050    9.0030 c3      1463 PE       0.039600
   8778 C2        -21.3770  -29.2050    8.1230 c3      1463 PE       0.039600
   8779 H11       -22.7270  -29.5750    9.6630 hc      1464 PE      -0.019800
   8780 H12       -22.2170  -27.8450    9.5130 hc      1464 PE      -0.019800
   8781 H21       -23.7670  -29.2150    7.3130 hc      1464 PE      -0.019800
   8782 H22       -23.5570  -27.4850    7.6030 hc      1464 PE      -0.019800
   8783 C1        -22.5470  -28.7450    8.9830 c3      1464 PE       0.039600
   8784 C2        -23.7670  -28.4450    8.1030 c3      1464 PE       0.039600
   8785 H11       -25.1970  -29.1950    9.5430 hc      1465 PE      -0.019800
   8786 H12       -25.0670  -27.5150    9.6930 hc      1465 PE      -0.019800
   8787 H21       -26.8170  -29.0850    7.6030 hc      1465 PE      -0.019800
   8788 H22       -26.2470  -27.4950    7.1630 hc      1465 PE      -0.019800
   8789 C1        -25.1770  -28.2950    8.9230 c3      1465 PE       0.039600
   8790 C2        -26.4870  -28.1250    8.0230 c3      1465 PE       0.039600
   8791 H11       -27.8470  -28.2150    9.5830 hc      1466 PE      -0.019800
   8792 H12       -27.3070  -26.4850    9.2930 hc      1466 PE      -0.019800
   8793 H21       -29.5570  -28.0350    7.8330 hc      1466 PE      -0.019800
   8794 H22       -28.7770  -26.5750    7.0830 hc      1466 PE      -0.019800
   8795 C1        -27.6870  -27.4150    8.8530 c3      1466 PE       0.039600
   8796 C2        -28.9570  -27.1350    8.0130 c3      1466 PE       0.039600
   8797 H11       -30.0370  -26.6050    9.8330 hc      1467 PE      -0.019800
   8798 H12       -29.4670  -25.2650    9.1530 hc      1467 PE      -0.019800
   8799 H21       -31.5270  -26.9150    7.6530 hc      1467 PE      -0.019800
   8800 H22       -31.1270  -25.2550    7.1630 hc      1467 PE      -0.019800
   8801 C1        -29.9170  -26.2050    8.8230 c3      1467 PE       0.039600
   8802 C2        -31.2270  -25.9250    8.0230 c3      1467 PE       0.039600
   8803 H11       -32.7470  -26.1050    9.7530 hc      1468 PE      -0.019800
   8804 H12       -31.9970  -24.5350    9.5530 hc      1468 PE      -0.019800
   8805 H21       -34.4970  -24.9550    8.9130 hc      1468 PE      -0.019800
   8806 H22       -33.7270  -25.5350    7.3730 hc      1468 PE      -0.019800
   8807 C1        -32.3970  -25.3950    9.0030 c3      1468 PE       0.039600
   8808 C2        -33.6370  -24.8750    8.2430 c3      1468 PE       0.039600
   8809 H11       -33.0870  -22.7850    8.6530 hc      1469 PE      -0.019800
   8810 H12       -32.4470  -23.3250    7.1630 hc      1469 PE      -0.019800
   8811 H21       -35.4370  -23.0950    7.4730 hc      1469 PE      -0.019800
   8812 H22       -34.4670  -23.5250    6.0430 hc      1469 PE      -0.019800
   8813 C1        -33.3470  -23.4050    7.7830 c3      1469 PE       0.039600
   8814 C2        -34.5070  -22.8850    6.9330 c3      1469 PE       0.039600
   8815 H11       -34.5070  -20.6850    7.3230 hc      1470 PE      -0.019800
   8816 H12       -33.3670  -21.3450    6.0830 hc      1470 PE      -0.019800
   8817 H21       -36.4370  -21.3150    5.6230 hc      1470 PE      -0.019800
   8818 H22       -35.4170  -19.9450    5.2630 hc      1470 PE      -0.019800
   8819 C1        -34.3870  -21.3850    6.4930 c3      1470 PE       0.039600
   8820 C2        -35.4070  -21.0350    5.3530 c3      1470 PE       0.039600
   8821 H11       -11.8270  -10.8550    3.0330 hc      1471 PE      -0.019800
   8822 H12       -13.5370  -10.3650    3.2230 hc      1471 PE      -0.019800
   8823 H21       -11.3370   -9.5050    5.1030 hc      1471 PE      -0.019800
   8824 H22       -13.0170   -9.3350    5.3130 hc      1471 PE      -0.019800
   8825 C1        -12.5970  -10.5650    3.7530 c3      1471 PE       0.039600
   8826 C2        -12.2570   -9.3850    4.5230 c3      1471 PE       0.039600
   8827 H11       -11.4170   -8.1750    2.9730 hc      1472 PE      -0.019800
   8828 H12       -13.1570   -8.1450    3.1230 hc      1472 PE      -0.019800
   8829 H21       -11.4670   -7.0350    5.3930 hc      1472 PE      -0.019800
   8830 H22       -13.2370   -6.8650    5.1030 hc      1472 PE      -0.019800
   8831 C1        -12.2370   -8.1050    3.7130 c3      1472 PE       0.039600
   8832 C2        -12.2470   -6.9050    4.6330 c3      1472 PE       0.039600
   8833 H11       -10.9470   -5.8050    3.4530 hc      1473 PE      -0.019800
   8834 H12       -12.6470   -5.4050    3.0230 hc      1473 PE      -0.019800
   8835 H21       -11.1370   -4.6250    5.4630 hc      1473 PE      -0.019800
   8836 H22       -12.7870   -4.3150    5.3730 hc      1473 PE      -0.019800
   8837 C1        -11.9470   -5.5950    3.8430 c3      1473 PE       0.039600
   8838 C2        -11.9070   -4.3650    4.7230 c3      1473 PE       0.039600
   8839 H11       -12.4270   -2.8950    3.2630 hc      1474 PE      -0.019800
   8840 H12       -11.7370   -2.2050    4.8130 hc      1474 PE      -0.019800
   8841 H21       -10.4170   -3.6450    2.4330 hc      1474 PE      -0.019800
   8842 H22        -9.5470   -3.3050    3.9430 hc      1474 PE      -0.019800
   8843 C1        -11.6870   -3.0150    4.0730 c3      1474 PE       0.039600
   8844 C2        -10.3570   -2.9550    3.2830 c3      1474 PE       0.039600
   8845 H11       -10.7470   -1.0150    2.5430 hc      1475 PE      -0.019800
   8846 H12        -9.3170   -1.0650    3.6230 hc      1475 PE      -0.019800
   8847 H21        -9.5970   -1.9950    0.6130 hc      1475 PE      -0.019800
   8848 H22        -8.2870   -2.5550    1.5330 hc      1475 PE      -0.019800
   8849 C1         -9.8270   -1.5650    2.7930 c3      1475 PE       0.039600
   8850 C2         -8.9870   -1.7150    1.4830 c3      1475 PE       0.039600
   8851 H11        -7.9270   -0.2950    0.1330 hc      1476 PE      -0.019800
   8852 H12        -9.0270    0.4350    1.4230 hc      1476 PE      -0.019800
   8853 H21        -6.3370   -0.7450    1.8130 hc      1476 PE      -0.019800
   8854 H22        -7.3870   -0.4750    3.0730 hc      1476 PE      -0.019800
   8855 C1         -8.3070   -0.3550    1.1630 c3      1476 PE       0.039600
   8856 C2         -7.1570   -0.0750    2.0730 c3      1476 PE       0.039600
   8857 H11        -6.8070    1.8750    1.1230 hc      1477 PE      -0.019800
   8858 H12        -7.6970    2.0250    2.5230 hc      1477 PE      -0.019800
   8859 H21        -4.6770    1.5650    2.2730 hc      1477 PE      -0.019800
   8860 H22        -5.6570    1.3950    3.8030 hc      1477 PE      -0.019800
   8861 C1         -6.8670    1.4350    2.1230 c3      1477 PE       0.039600
   8862 C2         -5.6070    1.8250    2.7930 c3      1477 PE       0.039600
   8863 H11        -5.6970    3.8250    2.0830 hc      1478 PE      -0.019800
   8864 H12        -6.1270    3.7350    3.8730 hc      1478 PE      -0.019800
   8865 H21        -4.0370    4.7450    3.9730 hc      1478 PE      -0.019800
   8866 H22        -3.3070    3.8550    2.6430 hc      1478 PE      -0.019800
   8867 C1         -5.4770    3.3850    3.0630 c3      1478 PE       0.039600
   8868 C2         -4.0170    3.7750    3.4730 c3      1478 PE       0.039600
   8869 H11        -4.2670    2.4550    5.2230 hc      1479 PE      -0.019800
   8870 H12        -3.1370    1.8850    3.9330 hc      1479 PE      -0.019800
   8871 H21        -2.5070    4.0950    6.0630 hc      1479 PE      -0.019800
   8872 H22        -1.5870    3.8450    4.6430 hc      1479 PE      -0.019800
   8873 C1         -3.4670    2.7550    4.5230 c3      1479 PE       0.039600
   8874 C2         -2.2570    3.3150    5.3330 c3      1479 PE       0.039600
   8875 H11        -1.9370    1.2850    6.1930 hc      1480 PE      -0.019800
   8876 H12        -0.7770    1.8050    5.0130 hc      1480 PE      -0.019800
   8877 H21        -0.9070    2.9750    7.7730 hc      1480 PE      -0.019800
   8878 H22         0.1930    3.4350    6.4130 hc      1480 PE      -0.019800
   8879 C1         -1.3470    2.1650    5.8830 c3      1480 PE       0.039600
   8880 C2         -0.3070    2.6050    6.9330 c3      1480 PE       0.039600
   8881 H11        -0.0570    0.7850    8.0830 hc      1481 PE      -0.019800
   8882 H12         1.1630    0.8450    6.7430 hc      1481 PE      -0.019800
   8883 H21         0.9830    2.4150    9.4830 hc      1481 PE      -0.019800
   8884 H22         2.1230    2.9150    8.2330 hc      1481 PE      -0.019800
   8885 C1          0.6130    1.4250    7.5030 c3      1481 PE       0.039600
   8886 C2          1.5730    2.0550    8.6330 c3      1481 PE       0.039600
   8887 H11         3.0430    1.5950   10.0430 hc      1482 PE      -0.019800
   8888 H12         2.1130    0.1850    9.3930 hc      1482 PE      -0.019800
   8889 H21         4.4430    1.7050    8.1430 hc      1482 PE      -0.019800
   8890 H22         3.4430    0.4550    7.1930 hc      1482 PE      -0.019800
   8891 C1          2.6330    1.1150    9.1430 c3      1482 PE       0.039600
   8892 C2          3.8230    0.7950    8.1630 c3      1482 PE       0.039600
   8893 H11         5.2230    0.0550    9.7230 hc      1483 PE      -0.019800
   8894 H12         4.3630   -1.2250    8.6930 hc      1483 PE      -0.019800
   8895 H21         6.5830    0.6250    7.6030 hc      1483 PE      -0.019800
   8896 H22         5.9630   -0.9350    7.0230 hc      1483 PE      -0.019800
   8897 C1          4.8830   -0.2550    8.7230 c3      1483 PE       0.039600
   8898 C2          6.1830   -0.3450    7.9230 c3      1483 PE       0.039600
   8899 H11         7.5730   -0.5550    9.6630 hc      1484 PE      -0.019800
   8900 H12         6.9830   -2.0850    9.0030 hc      1484 PE      -0.019800
   8901 H21         8.6930   -0.1450    7.2730 hc      1484 PE      -0.019800
   8902 H22         8.5930   -1.8350    7.1030 hc      1484 PE      -0.019800
   8903 C1          7.2530   -1.0550    8.7430 c3      1484 PE       0.039600
   8904 C2          8.5930   -1.0550    7.8730 c3      1484 PE       0.039600
   8905 H11         9.9230   -0.4050    9.4430 hc      1485 PE      -0.019800
   8906 H12         9.6630   -2.1650    9.4230 hc      1485 PE      -0.019800
   8907 H21        11.0130   -0.8050    7.0430 hc      1485 PE      -0.019800
   8908 H22        11.2530   -2.4250    7.7930 hc      1485 PE      -0.019800
   8909 C1          9.8230   -1.2850    8.7930 c3      1485 PE       0.039600
   8910 C2         11.1430   -1.3550    7.9830 c3      1485 PE       0.039600
   8911 H11        12.1930    0.1450    9.0530 hc      1486 PE      -0.019800
   8912 H12        12.6230   -1.6050    9.3330 hc      1486 PE      -0.019800
   8913 H21        13.7030    0.0950    6.8830 hc      1486 PE      -0.019800
   8914 H22        13.6630   -1.5550    6.9430 hc      1486 PE      -0.019800
   8915 C1         12.4730   -0.8050    8.6030 c3      1486 PE       0.039600
   8916 C2         13.6430   -0.7050    7.6330 c3      1486 PE       0.039600
   8917 H11        14.9930    0.1350    9.0830 hc      1487 PE      -0.019800
   8918 H12        15.1730   -1.6250    8.9830 hc      1487 PE      -0.019800
   8919 H21        16.2630    0.3050    6.8030 hc      1487 PE      -0.019800
   8920 H22        16.3930   -1.4450    6.8730 hc      1487 PE      -0.019800
   8921 C1         15.0230   -0.7150    8.3830 c3      1487 PE       0.039600
   8922 C2         16.3130   -0.5450    7.4930 c3      1487 PE       0.039600
   8923 H11        17.2630    0.4450    9.1030 hc      1488 PE      -0.019800
   8924 H12        17.6230   -1.2850    8.8130 hc      1488 PE      -0.019800
   8925 H21        18.5730    0.8250    6.8630 hc      1488 PE      -0.019800
   8926 H22        18.8930   -0.9150    6.9530 hc      1488 PE      -0.019800
   8927 C1         17.4830   -0.3050    8.3330 c3      1488 PE       0.039600
   8928 C2         18.7730   -0.0050    7.5530 c3      1488 PE       0.039600
   8929 H11        19.5930    1.1750    9.1730 hc      1489 PE      -0.019800
   8930 H12        20.0730   -0.4550    9.2630 hc      1489 PE      -0.019800
   8931 H21        21.0730    1.2550    6.9230 hc      1489 PE      -0.019800
   8932 H22        21.4830   -0.3350    7.3630 hc      1489 PE      -0.019800
   8933 C1         19.9430    0.3550    8.5330 c3      1489 PE       0.039600
   8934 C2         21.1930    0.6250    7.8130 c3      1489 PE       0.039600
   8935 H11        21.9830    2.1750    9.0730 hc      1490 PE      -0.019800
   8936 H12        22.3230    0.6750    9.7030 hc      1490 PE      -0.019800
   8937 H21        23.4730    2.1050    7.1530 hc      1490 PE      -0.019800
   8938 H22        23.9830    0.4550    7.5530 hc      1490 PE      -0.019800
   8939 C1         22.3530    1.1950    8.7430 c3      1490 PE       0.039600
   8940 C2         23.6430    1.4050    7.9730 c3      1490 PE       0.039600
   8941 H11        24.4530    2.8650    9.4930 hc      1491 PE      -0.019800
   8942 H12        25.1030    1.3350    9.6430 hc      1491 PE      -0.019800
   8943 H21        25.8030    3.3350    7.3230 hc      1491 PE      -0.019800
   8944 H22        26.4330    1.6250    7.3930 hc      1491 PE      -0.019800
   8945 C1         24.7930    2.0350    8.8530 c3      1491 PE       0.039600
   8946 C2         26.1230    2.5050    7.9730 c3      1491 PE       0.039600
   8947 H11        26.8630    3.9550    9.1630 hc      1492 PE      -0.019800
   8948 H12        27.5830    2.4150    9.6130 hc      1492 PE      -0.019800
   8949 H21        28.3830    4.1850    7.2630 hc      1492 PE      -0.019800
   8950 H22        28.6530    2.4450    7.2730 hc      1492 PE      -0.019800
   8951 C1         27.3130    3.0350    8.7530 c3      1492 PE       0.039600
   8952 C2         28.5730    3.3250    7.9130 c3      1492 PE       0.039600
   8953 H11        29.5630    3.9650    9.7430 hc      1493 PE      -0.019800
   8954 H12        29.9030    2.3950    9.1930 hc      1493 PE      -0.019800
   8955 H21        30.8130    4.7850    7.5630 hc      1493 PE      -0.019800
   8956 H22        31.3230    3.1250    7.2830 hc      1493 PE      -0.019800
   8957 C1         29.7630    3.4150    8.8230 c3      1493 PE       0.039600
   8958 C2         31.0230    3.8250    8.0630 c3      1493 PE       0.039600
   8959 H11        32.2030    5.1550    9.3930 hc      1494 PE      -0.019800
   8960 H12        32.2330    3.3650    9.8030 hc      1494 PE      -0.019800
   8961 H21        33.6030    4.6450    7.3830 hc      1494 PE      -0.019800
   8962 H22        33.9930    2.9850    8.1530 hc      1494 PE      -0.019800
   8963 C1         32.2530    4.1250    9.0130 c3      1494 PE       0.039600
   8964 C2         33.6330    4.0150    8.2830 c3      1494 PE       0.039600
   8965 H11        34.5730    5.5050    9.5730 hc      1495 PE      -0.019800
   8966 H12        35.1130    3.8550    9.8830 hc      1495 PE      -0.019800
   8967 H21        35.8430    5.3350    7.3030 hc      1495 PE      -0.019800
   8968 H22        36.3530    3.7350    7.7130 hc      1495 PE      -0.019800
   8969 C1         34.8230    4.5550    9.0930 c3      1495 PE       0.039600
   8970 C2         36.0730    4.6950    8.1630 c3      1495 PE       0.039600
   8971 H11        37.1230    6.2650    9.4030 hc      1496 PE      -0.019800
   8972 H12        37.4330    4.6750    9.8830 hc      1496 PE      -0.019800
   8973 H21        38.2630    5.8850    7.1230 hc      1496 PE      -0.019800
   8974 H22        38.8730    4.3450    7.7830 hc      1496 PE      -0.019800
   8975 C1         37.3030    5.2750    8.9730 c3      1496 PE       0.039600
   8976 C2         38.5430    5.3650    8.0430 c3      1496 PE       0.039600
   8977 H11       -40.5170    7.2250    8.9930 hc      1497 PE      -0.019800
   8978 H12       -40.1170    5.6450    9.7130 hc      1497 PE      -0.019800
   8979 H21       -39.0970    6.9150    7.0730 hc      1497 PE      -0.019800
   8980 H22       -38.6970    5.2350    7.6330 hc      1497 PE      -0.019800
   8981 C1        -40.2970    6.1750    8.7730 c3      1497 PE       0.039600
   8982 C2        -39.0070    6.2450    7.9330 c3      1497 PE       0.039600
   8983 H11       -38.2670    7.8350    9.2130 hc      1498 PE      -0.019800
   8984 H12       -37.6470    6.2350    9.6930 hc      1498 PE      -0.019800
   8985 H21       -36.7770    7.6250    7.0430 hc      1498 PE      -0.019800
   8986 H22       -36.3770    6.0650    7.5730 hc      1498 PE      -0.019800
   8987 C1        -37.8970    6.8750    8.8330 c3      1498 PE       0.039600
   8988 C2        -36.6370    7.0550    7.9730 c3      1498 PE       0.039600
   8989 H11       -35.7470    8.5850    9.1430 hc      1499 PE      -0.019800
   8990 H12       -35.3370    6.8750    9.6730 hc      1499 PE      -0.019800
   8991 H21       -34.4870    8.6350    7.2930 hc      1499 PE      -0.019800
   8992 H22       -33.8570    6.9450    7.4530 hc      1499 PE      -0.019800
   8993 C1        -35.4170    7.5850    8.8330 c3      1499 PE       0.039600
   8994 C2        -34.1770    7.8450    7.9930 c3      1499 PE       0.039600
   8995 H11       -33.3970    9.2550    9.3830 hc      1500 PE      -0.019800
   8996 H12       -32.6970    7.6450    9.6430 hc      1500 PE      -0.019800
   8997 H21       -30.9970    9.0050    8.7930 hc      1500 PE      -0.019800
   8998 H22       -31.3270    7.6650    7.6630 hc      1500 PE      -0.019800
   8999 C1        -33.0370    8.3550    8.8730 c3      1500 PE       0.039600
   9000 C2        -31.7370    8.5850    8.1030 c3      1500 PE       0.039600
   9001 H11       -21.9570  -10.8050    5.3130 hc      1501 PE      -0.019800
   9002 H12       -20.3970  -11.4850    5.3430 hc      1501 PE      -0.019800
   9003 H21       -21.2370  -10.0750    2.7930 hc      1501 PE      -0.019800
   9004 H22       -19.6470  -10.2750    3.4330 hc      1501 PE      -0.019800
   9005 C1        -21.1770  -11.1750    4.6330 c3      1501 PE       0.039600
   9006 C2        -20.6770  -10.0550    3.7330 c3      1501 PE       0.039600
   9007 H11       -21.8170   -8.6150    4.9330 hc      1502 PE      -0.019800
   9008 H12       -20.0370   -8.5250    5.1830 hc      1502 PE      -0.019800
   9009 H21       -21.5870   -7.2050    3.0230 hc      1502 PE      -0.019800
   9010 H22       -19.8770   -7.6050    2.7730 hc      1502 PE      -0.019800
   9011 C1        -20.8370   -8.6850    4.4530 c3      1502 PE       0.039600
   9012 C2        -20.6470   -7.4450    3.5330 c3      1502 PE       0.039600
   9013 H11       -21.2570   -5.8450    4.9630 hc      1503 PE      -0.019800
   9014 H12       -19.5070   -6.3050    5.0630 hc      1503 PE      -0.019800
   9015 H21       -20.7570   -4.6550    2.7630 hc      1503 PE      -0.019800
   9016 H22       -19.1370   -5.1450    2.9430 hc      1503 PE      -0.019800
   9017 C1        -20.3670   -6.1450    4.3930 c3      1503 PE       0.039600
   9018 C2        -20.0270   -4.8950    3.5430 c3      1503 PE       0.039600
   9019 H11       -20.5870   -3.5550    5.1930 hc      1504 PE      -0.019800
   9020 H12       -18.8370   -3.6550    4.8930 hc      1504 PE      -0.019800
   9021 H21       -20.8970   -2.4850    3.0230 hc      1504 PE      -0.019800
   9022 H22       -19.2470   -2.2050    2.8330 hc      1504 PE      -0.019800
   9023 C1        -19.8270   -3.6150    4.4130 c3      1504 PE       0.039600
   9024 C2        -19.9970   -2.3050    3.6230 c3      1504 PE       0.039600
   9025 H11       -20.7470   -1.1150    5.2230 hc      1505 PE      -0.019800
   9026 H12       -18.9370   -0.9650    5.0330 hc      1505 PE      -0.019800
   9027 H21       -21.0070    0.0450    2.9130 hc      1505 PE      -0.019800
   9028 H22       -19.3570    0.5550    3.0230 hc      1505 PE      -0.019800
   9029 C1        -19.9070   -1.0450    4.5230 c3      1505 PE       0.039600
   9030 C2        -20.2170    0.2650    3.6430 c3      1505 PE       0.039600
   9031 H11       -21.5170    1.0850    5.1530 hc      1506 PE      -0.019800
   9032 H12       -19.8670    1.6750    5.1830 hc      1506 PE      -0.019800
   9033 H21       -21.8470    2.4750    2.9430 hc      1506 PE      -0.019800
   9034 H22       -20.2970    3.1250    3.1330 hc      1506 PE      -0.019800
   9035 C1        -20.6870    1.4050    4.5130 c3      1506 PE       0.039600
   9036 C2        -21.1170    2.6950    3.7230 c3      1506 PE       0.039600
   9037 H11       -22.5970    3.3350    5.1830 hc      1507 PE      -0.019800
   9038 H12       -20.9870    3.7350    5.6230 hc      1507 PE      -0.019800
   9039 H21       -22.2970    5.0850    3.1330 hc      1507 PE      -0.019800
   9040 H22       -20.6870    5.4550    3.7530 hc      1507 PE      -0.019800
   9041 C1        -21.6470    3.6850    4.7430 c3      1507 PE       0.039600
   9042 C2        -21.7070    5.1550    4.0530 c3      1507 PE       0.039600
   9043 H11       -23.2670    6.4650    4.9530 hc      1508 PE      -0.019800
   9044 H12       -21.8770    6.0750    5.9230 hc      1508 PE      -0.019800
   9045 H21       -22.1270    7.6750    3.3730 hc      1508 PE      -0.019800
   9046 H22       -20.5970    7.7550    4.3230 hc      1508 PE      -0.019800
   9047 C1        -22.1770    6.3350    4.8930 c3      1508 PE       0.039600
   9048 C2        -21.6970    7.6850    4.3730 c3      1508 PE       0.039600
   9049 H11       -21.8570    9.8050    4.8830 hc      1509 PE      -0.019800
   9050 H12       -23.3470    9.0050    5.1230 hc      1509 PE      -0.019800
   9051 H21       -22.3170    7.7750    7.1830 hc      1509 PE      -0.019800
   9052 H22       -22.5670    9.4050    7.3430 hc      1509 PE      -0.019800
   9053 C1        -22.2670    8.8450    5.2130 c3      1509 PE       0.039600
   9054 C2        -21.9470    8.7150    6.7530 c3      1509 PE       0.039600
   9055 H11       -19.8270    8.4350    6.3330 hc      1510 PE      -0.019800
   9056 H12       -20.2070   10.0150    6.7730 hc      1510 PE      -0.019800
   9057 H21       -20.5170    7.8850    8.8430 hc      1510 PE      -0.019800
   9058 H22       -20.2070    9.6350    9.0830 hc      1510 PE      -0.019800
   9059 C1        -20.4670    8.9850    7.0430 c3      1510 PE       0.039600
   9060 C2        -19.9670    8.7550    8.4730 c3      1510 PE       0.039600
   9061 H11       -18.4870    7.8150    9.6130 hc      1511 PE      -0.019800
   9062 H12       -18.3570    7.3750    7.9130 hc      1511 PE      -0.019800
   9063 H21       -17.7470   10.0250    9.2630 hc      1511 PE      -0.019800
   9064 H22       -17.5270    9.8650    7.5330 hc      1511 PE      -0.019800
   9065 C1        -18.5170    8.2150    8.5930 c3      1511 PE       0.039600
   9066 C2        -17.4270    9.3250    8.4830 c3      1511 PE       0.039600
   9067 H11       -16.0070    8.2250    9.6430 hc      1512 PE      -0.019800
   9068 H12       -15.7970    8.0350    7.9030 hc      1512 PE      -0.019800
   9069 H21       -15.2970   10.4950    9.4330 hc      1512 PE      -0.019800
   9070 H22       -15.1970   10.4850    7.7130 hc      1512 PE      -0.019800
   9071 C1        -16.0570    8.7650    8.6830 c3      1512 PE       0.039600
   9072 C2        -15.0070    9.8550    8.5930 c3      1512 PE       0.039600
   9073 H11       -13.5570    8.6850    9.7930 hc      1513 PE      -0.019800
   9074 H12       -13.4970    8.3750    8.0730 hc      1513 PE      -0.019800
   9075 H21       -12.4970   10.7150    9.7630 hc      1513 PE      -0.019800
   9076 H22       -12.8670   10.9750    8.1130 hc      1513 PE      -0.019800
   9077 C1        -13.6070    9.1750    8.8030 c3      1513 PE       0.039600
   9078 C2        -12.4870   10.2050    8.7930 c3      1513 PE       0.039600
   9079 H11       -10.6670    8.9750    9.0030 hc      1514 PE      -0.019800
   9080 H12       -11.3870    9.1150    7.3830 hc      1514 PE      -0.019800
   9081 H21        -9.9570   11.2050    9.1430 hc      1514 PE      -0.019800
   9082 H22       -10.5070   11.6150    7.4730 hc      1514 PE      -0.019800
   9083 C1        -11.1170    9.6750    8.2930 c3      1514 PE       0.039600
   9084 C2        -10.0870   10.8350    8.1230 c3      1514 PE       0.039600
   9085 H11        -8.5070    9.4250    7.8830 hc      1515 PE      -0.019800
   9086 H12        -8.7670   10.3850    6.3330 hc      1515 PE      -0.019800
   9087 H21        -7.5670   11.3950    9.0230 hc      1515 PE      -0.019800
   9088 H22        -7.6770   12.3750    7.6030 hc      1515 PE      -0.019800
   9089 C1         -8.7170   10.4050    7.4330 c3      1515 PE       0.039600
   9090 C2         -7.5770   11.3250    7.9330 c3      1515 PE       0.039600
   9091 H11        -5.9570    9.8150    7.9030 hc      1516 PE      -0.019800
   9092 H12        -6.0870   10.8550    6.4730 hc      1516 PE      -0.019800
   9093 H21        -4.8670   11.6550    9.2230 hc      1516 PE      -0.019800
   9094 H22        -5.0470   12.7650    7.8830 hc      1516 PE      -0.019800
   9095 C1         -6.1370   10.8550    7.5730 c3      1516 PE       0.039600
   9096 C2         -5.0070   11.6950    8.1330 c3      1516 PE       0.039600
   9097 H11        -3.5670   10.1850    7.4930 hc      1517 PE      -0.019800
   9098 H12        -3.7170   11.4950    6.4230 hc      1517 PE      -0.019800
   9099 H21        -2.0370   11.2050    9.0030 hc      1517 PE      -0.019800
   9100 H22        -2.6270   12.8450    8.7530 hc      1517 PE      -0.019800
   9101 C1         -3.6570   11.2850    7.4930 c3      1517 PE       0.039600
   9102 C2         -2.3670   11.9150    8.2330 c3      1517 PE       0.039600
   9103 H11        -1.0470   11.2950    6.5430 hc      1518 PE      -0.019800
   9104 H12        -1.5570   12.9650    6.6030 hc      1518 PE      -0.019800
   9105 H21         0.1530   11.4550    8.7030 hc      1518 PE      -0.019800
   9106 H22         0.0130   13.1350    8.7130 hc      1518 PE      -0.019800
   9107 C1         -1.2070   12.1350    7.2330 c3      1518 PE       0.039600
   9108 C2          0.1330   12.2950    8.0130 c3      1518 PE       0.039600
   9109 H11         1.5030   11.5750    6.4930 hc      1519 PE      -0.019800
   9110 H12         0.9630   13.1550    6.2930 hc      1519 PE      -0.019800
   9111 H21         3.5130   13.0250    7.1130 hc      1519 PE      -0.019800
   9112 H22         2.8230   12.1250    8.5230 hc      1519 PE      -0.019800
   9113 C1          1.3330   12.4850    7.0830 c3      1519 PE       0.039600
   9114 C2          2.6530   12.9150    7.7830 c3      1519 PE       0.039600
   9115 H11         1.7530   14.2850    9.2730 hc      1520 PE      -0.019800
   9116 H12         3.4530   14.3850    9.1730 hc      1520 PE      -0.019800
   9117 H21         1.5330   15.3350    6.8630 hc      1520 PE      -0.019800
   9118 H22         3.2130   15.6950    7.2330 hc      1520 PE      -0.019800
   9119 C1          2.5630   14.2450    8.5430 c3      1520 PE       0.039600
   9120 C2          2.2530   15.4250    7.6830 c3      1520 PE       0.039600
   9121 H11         2.7130   16.9050    9.2230 hc      1521 PE      -0.019800
   9122 H12         1.8130   17.5250    7.8330 hc      1521 PE      -0.019800
   9123 H21         0.3430   17.4850    9.9430 hc      1521 PE      -0.019800
   9124 H22         0.4630   15.6450    9.8930 hc      1521 PE      -0.019800
   9125 C1          1.8730   16.6950    8.5530 c3      1521 PE       0.039600
   9126 C2          0.4930   16.5850    9.3330 c3      1521 PE       0.039600
   9127 H11        -0.9270   17.4250    7.9030 hc      1522 PE      -0.019800
   9128 H12        -0.6070   15.6850    7.6830 hc      1522 PE      -0.019800
   9129 H21        -2.2570   16.9550    9.8930 hc      1522 PE      -0.019800
   9130 H22        -1.7470   15.2850    9.8430 hc      1522 PE      -0.019800
   9131 C1         -0.7970   16.4750    8.4230 c3      1522 PE       0.039600
   9132 C2         -2.0570   16.1250    9.2130 c3      1522 PE       0.039600
   9133 H11        -3.3870   16.6150    7.6630 hc      1523 PE      -0.019800
   9134 H12        -3.0870   14.9450    7.6930 hc      1523 PE      -0.019800
   9135 H21        -4.7270   16.1350   10.1030 hc      1523 PE      -0.019800
   9136 H22        -4.5570   14.4650    9.6930 hc      1523 PE      -0.019800
   9137 C1         -3.3270   15.7750    8.3730 c3      1523 PE       0.039600
   9138 C2         -4.6670   15.4550    9.2330 c3      1523 PE       0.039600
   9139 H11        -6.1270   16.6250    8.1830 hc      1524 PE      -0.019800
   9140 H12        -6.1470   14.9750    7.6730 hc      1524 PE      -0.019800
   9141 H21        -7.1870   16.3650   10.0430 hc      1524 PE      -0.019800
   9142 H22        -6.9770   14.5050   10.2230 hc      1524 PE      -0.019800
   9143 C1         -6.0470   15.5950    8.5630 c3      1524 PE       0.039600
   9144 C2         -7.1670   15.3750    9.5730 c3      1524 PE       0.039600
   9145 H11        -8.4470   15.7650    7.7830 hc      1525 PE      -0.019800
   9146 H12        -8.3170   14.1050    8.3230 hc      1525 PE      -0.019800
   9147 H21        -9.8870   16.1250    9.8730 hc      1525 PE      -0.019800
   9148 H22        -9.9370   14.3750   10.1030 hc      1525 PE      -0.019800
   9149 C1         -8.4470   15.1350    8.6830 c3      1525 PE       0.039600
   9150 C2         -9.8370   15.1650    9.3530 c3      1525 PE       0.039600
   9151 H11       -11.3070   15.9250    7.7630 hc      1526 PE      -0.019800
   9152 H12       -10.7070   14.2650    7.5730 hc      1526 PE      -0.019800
   9153 H21       -12.5970   15.2650    9.8430 hc      1526 PE      -0.019800
   9154 H22       -12.0670   13.6550    9.6330 hc      1526 PE      -0.019800
   9155 C1        -11.0670   15.0050    8.2930 c3      1526 PE       0.039600
   9156 C2        -12.3470   14.5450    9.0530 c3      1526 PE       0.039600
   9157 H11       -13.6570   15.3450    7.5730 hc      1527 PE      -0.019800
   9158 H12       -13.5470   13.4750    7.5530 hc      1527 PE      -0.019800
   9159 H21       -15.2770   15.1950    9.4230 hc      1527 PE      -0.019800
   9160 H22       -14.9470   13.3850    9.5830 hc      1527 PE      -0.019800
   9161 C1        -13.6470   14.4050    8.1330 c3      1527 PE       0.039600
   9162 C2        -15.0270   14.2550    8.9230 c3      1527 PE       0.039600
   9163 H11       -16.4670   14.7550    7.2230 hc      1528 PE      -0.019800
   9164 H12       -16.0670   13.0950    7.3230 hc      1528 PE      -0.019800
   9165 H21       -17.8070   14.5950    9.5530 hc      1528 PE      -0.019800
   9166 H22       -17.3270   12.9050    9.5130 hc      1528 PE      -0.019800
   9167 C1        -16.2870   13.9550    7.9530 c3      1528 PE       0.039600
   9168 C2        -17.6070   13.7450    8.8730 c3      1528 PE       0.039600
   9169 H11       -19.0570   14.4550    7.4730 hc      1529 PE      -0.019800
   9170 H12       -18.5170   12.7550    7.1830 hc      1529 PE      -0.019800
   9171 H21       -20.0870   13.8650    9.5830 hc      1529 PE      -0.019800
   9172 H22       -19.8270   12.1450    9.4930 hc      1529 PE      -0.019800
   9173 C1        -18.8170   13.4850    7.9430 c3      1529 PE       0.039600
   9174 C2        -19.9470   13.0450    8.8730 c3      1529 PE       0.039600
   9175 H11       -21.4270   13.7950    7.3730 hc      1530 PE      -0.019800
   9176 H12       -21.1970   12.0950    7.3530 hc      1530 PE      -0.019800
   9177 H21       -22.5570   11.8450    9.3130 hc      1530 PE      -0.019800
   9178 H22       -23.4870   12.6150    8.0930 hc      1530 PE      -0.019800
   9179 C1        -21.2870   12.9350    8.0430 c3      1530 PE       0.039600
   9180 C2        -22.6070   12.7750    8.7330 c3      1530 PE       0.039600
   9181 H11       -34.8170   21.7950   -2.5070 hc      1531 PE      -0.019800
   9182 H12       -34.0270   23.2750   -2.9970 hc      1531 PE      -0.019800
   9183 H21       -36.8770   22.4250   -3.5170 hc      1531 PE      -0.019800
   9184 H22       -35.7270   23.2750   -4.5170 hc      1531 PE      -0.019800
   9185 C1        -34.9570   22.8850   -2.5670 c3      1531 PE       0.039600
   9186 C2        -36.1170   23.2150   -3.4970 c3      1531 PE       0.039600
   9187 H11       -37.4870   24.1750   -2.2370 hc      1532 PE      -0.019800
   9188 H12       -36.0670   25.2150   -2.5270 hc      1532 PE      -0.019800
   9189 H21       -38.4870   24.4450   -4.1770 hc      1532 PE      -0.019800
   9190 H22       -37.3670   25.3150   -4.9870 hc      1532 PE      -0.019800
   9191 C1        -36.7870   24.5250   -3.0070 c3      1532 PE       0.039600
   9192 C2        -37.7170   25.1950   -3.9570 c3      1532 PE       0.039600
   9193 H11       -39.1070   26.1950   -2.7070 hc      1533 PE      -0.019800
   9194 H12       -37.6870   27.2150   -3.0070 hc      1533 PE      -0.019800
   9195 H21       -40.0670   26.3750   -4.9070 hc      1533 PE      -0.019800
   9196 H22       -38.8270   27.5250   -5.3470 hc      1533 PE      -0.019800
   9197 C1        -38.3470   26.4650   -3.4570 c3      1533 PE       0.039600
   9198 C2        -39.3570   27.1050   -4.4870 c3      1533 PE       0.039600
   9199 H11       -40.7070   27.8650   -2.8970 hc      1534 PE      -0.019800
   9200 H12       -39.3370   28.9250   -3.2070 hc      1534 PE      -0.019800
   9201 H21       -41.8170   28.4150   -5.1270 hc      1534 PE      -0.019800
   9202 H22       -40.6170   29.6050   -5.4970 hc      1534 PE      -0.019800
   9203 C1        -40.0670   28.2650   -3.6870 c3      1534 PE       0.039600
   9204 C2        -41.0770   29.0750   -4.6570 c3      1534 PE       0.039600
   9205 H11        37.6730   29.5550   -3.0970 hc      1535 PE      -0.019800
   9206 H12        38.9630   30.6550   -3.2770 hc      1535 PE      -0.019800
   9207 H21        36.3830   30.3250   -5.0170 hc      1535 PE      -0.019800
   9208 H22        37.6330   31.4850   -5.4870 hc      1535 PE      -0.019800
   9209 C1         38.1930   30.1450   -3.8570 c3      1535 PE       0.039600
   9210 C2         37.1530   31.0050   -4.6270 c3      1535 PE       0.039600
   9211 H11        35.9130   31.4350   -2.8870 hc      1536 PE      -0.019800
   9212 H12        37.0930   32.6450   -3.2270 hc      1536 PE      -0.019800
   9213 H21        34.7730   32.1650   -5.1570 hc      1536 PE      -0.019800
   9214 H22        35.9530   33.5150   -5.1370 hc      1536 PE      -0.019800
   9215 C1         36.3830   31.9750   -3.7170 c3      1536 PE       0.039600
   9216 C2         35.3630   32.8350   -4.5170 c3      1536 PE       0.039600
   9217 H11        33.7630   32.8950   -3.0970 hc      1537 PE      -0.019800
   9218 H12        35.0030   34.1650   -2.8370 hc      1537 PE      -0.019800
   9219 H21        33.0330   33.9250   -5.0670 hc      1537 PE      -0.019800
   9220 H22        34.4230   35.1650   -5.0270 hc      1537 PE      -0.019800
   9221 C1         34.4530   33.5950   -3.5970 c3      1537 PE       0.039600
   9222 C2         33.7030   34.5650   -4.4570 c3      1537 PE       0.039600
   9223 H11        32.1630   34.8450   -2.9670 hc      1538 PE      -0.019800
   9224 H12        33.4930   35.9650   -2.7470 hc      1538 PE      -0.019800
   9225 H21        31.5430   36.0050   -4.9970 hc      1538 PE      -0.019800
   9226 H22        33.0530   36.8050   -5.1270 hc      1538 PE      -0.019800
   9227 C1         32.9030   35.4350   -3.5170 c3      1538 PE       0.039600
   9228 C2         32.3030   36.5050   -4.3770 c3      1538 PE       0.039600
   9229 H11        30.7630   37.3850   -3.1170 hc      1539 PE      -0.019800
   9230 H12        32.3930   38.1550   -3.0570 hc      1539 PE      -0.019800
   9231 H21        30.5630   38.4650   -5.5070 hc      1539 PE      -0.019800
   9232 H22        32.0530   39.2550   -5.2370 hc      1539 PE      -0.019800
   9233 C1         31.5930   37.7850   -3.7070 c3      1539 PE       0.039600
   9234 C2         31.1730   38.8750   -4.6970 c3      1539 PE       0.039600
   9235 H11        29.6130  -40.1250   -3.5170 hc      1540 PE      -0.019800
   9236 H12        31.2930  -39.6350   -3.1870 hc      1540 PE      -0.019800
   9237 H21        29.6130  -38.8350   -5.6370 hc      1540 PE      -0.019800
   9238 H22        31.3030  -38.7150   -5.6470 hc      1540 PE      -0.019800
   9239 C1         30.5830  -39.8950   -3.9770 c3      1540 PE       0.039600
   9240 C2         30.4530  -38.7050   -4.9570 c3      1540 PE       0.039600
   9241 H11        29.6730  -37.4550   -3.3970 hc      1541 PE      -0.019800
   9242 H12        31.3730  -37.3750   -3.5870 hc      1541 PE      -0.019800
   9243 H21        29.6530  -36.1350   -5.6570 hc      1541 PE      -0.019800
   9244 H22        31.5030  -36.0550   -5.5770 hc      1541 PE      -0.019800
   9245 C1         30.4530  -37.4150   -4.1770 c3      1541 PE       0.039600
   9246 C2         30.5530  -36.0750   -5.0270 c3      1541 PE       0.039600
   9247 H11        30.6930  -34.0550   -4.9470 hc      1542 PE      -0.019800
   9248 H12        29.5530  -34.7150   -3.6670 hc      1542 PE      -0.019800
   9249 H21        32.6630  -34.6450   -3.4670 hc      1542 PE      -0.019800
   9250 H22        31.5830  -35.3850   -2.3270 hc      1542 PE      -0.019800
   9251 C1         30.5430  -34.7850   -4.1470 c3      1542 PE       0.039600
   9252 C2         31.6330  -34.6050   -3.0870 c3      1542 PE       0.039600
   9253 H11        31.9730  -32.5450   -3.2470 hc      1543 PE      -0.019800
   9254 H12        30.4930  -32.9350   -2.3370 hc      1543 PE      -0.019800
   9255 H21        33.4130  -32.9850   -1.1770 hc      1543 PE      -0.019800
   9256 H22        32.2330  -34.0550   -0.5170 hc      1543 PE      -0.019800
   9257 C1         31.5630  -33.1750   -2.4470 c3      1543 PE       0.039600
   9258 C2         32.3230  -33.0950   -1.0370 c3      1543 PE       0.039600
   9259 H11        32.6630  -32.0050    0.7130 hc      1544 PE      -0.019800
   9260 H12        32.2330  -30.9850   -0.6270 hc      1544 PE      -0.019800
   9261 H21        30.2730  -33.0250    0.9030 hc      1544 PE      -0.019800
   9262 H22        29.7830  -31.8350   -0.2570 hc      1544 PE      -0.019800
   9263 C1         31.9730  -31.9350   -0.1370 c3      1544 PE       0.039600
   9264 C2         30.5230  -32.0150    0.5330 c3      1544 PE       0.039600
   9265 H11        31.0230  -31.1950    2.5030 hc      1545 PE      -0.019800
   9266 H12        30.6730  -30.0750    1.3030 hc      1545 PE      -0.019800
   9267 H21        28.5430  -32.0550    2.5930 hc      1545 PE      -0.019800
   9268 H22        28.2930  -31.0050    1.2430 hc      1545 PE      -0.019800
   9269 C1         30.3630  -31.0750    1.6330 c3      1545 PE       0.039600
   9270 C2         28.9030  -31.1150    2.1430 c3      1545 PE       0.039600
   9271 H11        28.9730  -29.8850    4.0930 hc      1546 PE      -0.019800
   9272 H12        28.6730  -29.0350    2.6130 hc      1546 PE      -0.019800
   9273 H21        26.7130  -30.9050    4.1230 hc      1546 PE      -0.019800
   9274 H22        26.4230  -30.1450    2.5530 hc      1546 PE      -0.019800
   9275 C1         28.4230  -29.9650    3.1530 c3      1546 PE       0.039600
   9276 C2         26.9530  -30.0250    3.5030 c3      1546 PE       0.039600
   9277 H11        26.9930  -28.7650    5.3530 hc      1547 PE      -0.019800
   9278 H12        26.9830  -27.9650    3.7830 hc      1547 PE      -0.019800
   9279 H21        24.8030  -29.0950    5.3430 hc      1547 PE      -0.019800
   9280 H22        24.5930  -29.1850    3.5930 hc      1547 PE      -0.019800
   9281 C1         26.5430  -28.7950    4.3530 c3      1547 PE       0.039600
   9282 C2         25.0130  -28.5750    4.4030 c3      1547 PE       0.039600
   9283 H11        25.4030  -26.4250    4.6830 hc      1548 PE      -0.019800
   9284 H12        24.3630  -26.8350    3.2930 hc      1548 PE      -0.019800
   9285 H21        23.1030  -25.6350    5.2530 hc      1548 PE      -0.019800
   9286 H22        23.3630  -27.1250    6.1830 hc      1548 PE      -0.019800
   9287 C1         24.5430  -27.0350    4.3630 c3      1548 PE       0.039600
   9288 C2         23.2430  -26.7250    5.1630 c3      1548 PE       0.039600
   9289 H11        21.9930  -27.0350    3.5130 hc      1549 PE      -0.019800
   9290 H12        22.2030  -28.5050    4.4430 hc      1549 PE      -0.019800
   9291 H21        20.6830  -26.0550    5.5330 hc      1549 PE      -0.019800
   9292 H22        20.5830  -27.6250    6.2530 hc      1549 PE      -0.019800
   9293 C1         22.0130  -27.4250    4.5330 c3      1549 PE       0.039600
   9294 C2         20.6630  -27.1250    5.2830 c3      1549 PE       0.039600
   9295 H11        19.4630  -27.3250    3.4830 hc      1550 PE      -0.019800
   9296 H12        19.7130  -28.8250    4.2330 hc      1550 PE      -0.019800
   9297 H21        17.7530  -26.6250    5.1930 hc      1550 PE      -0.019800
   9298 H22        18.0630  -28.0850    6.1430 hc      1550 PE      -0.019800
   9299 C1         19.4830  -27.7750    4.4830 c3      1550 PE       0.039600
   9300 C2         18.0730  -27.6750    5.1330 c3      1550 PE       0.039600
   9301 H11        16.7730  -27.8150    3.4030 hc      1551 PE      -0.019800
   9302 H12        17.3030  -29.3350    3.9830 hc      1551 PE      -0.019800
   9303 H21        15.6230  -27.5050    5.7030 hc      1551 PE      -0.019800
   9304 H22        15.5730  -29.2350    5.9030 hc      1551 PE      -0.019800
   9305 C1         16.9530  -28.3550    4.3330 c3      1551 PE       0.039600
   9306 C2         15.6130  -28.4450    5.1430 c3      1551 PE       0.039600
   9307 H11        14.3230  -27.7550    3.4430 hc      1552 PE      -0.019800
   9308 H12        14.3630  -29.4450    3.5630 hc      1552 PE      -0.019800
   9309 H21        13.0130  -27.3850    5.2930 hc      1552 PE      -0.019800
   9310 H22        13.1130  -29.0250    6.0530 hc      1552 PE      -0.019800
   9311 C1         14.3630  -28.5450    4.2030 c3      1552 PE       0.039600
   9312 C2         13.0830  -28.4650    5.1030 c3      1552 PE       0.039600
   9313 H11        11.8530  -28.2650    3.3630 hc      1553 PE      -0.019800
   9314 H12        11.9430  -29.9750    3.8530 hc      1553 PE      -0.019800
   9315 H21        10.3730  -27.9250    5.4030 hc      1553 PE      -0.019800
   9316 H22        10.5630  -29.6450    5.8230 hc      1553 PE      -0.019800
   9317 C1         11.8530  -28.9450    4.2230 c3      1553 PE       0.039600
   9318 C2         10.5030  -28.9350    4.9830 c3      1553 PE       0.039600
   9319 H11         9.1430  -28.7450    3.3430 hc      1554 PE      -0.019800
   9320 H12         9.4630  -30.4450    3.7130 hc      1554 PE      -0.019800
   9321 H21         8.0130  -28.6650    5.6730 hc      1554 PE      -0.019800
   9322 H22         8.2530  -30.4750    5.6730 hc      1554 PE      -0.019800
   9323 C1          9.3530  -29.4450    4.1530 c3      1554 PE       0.039600
   9324 C2          8.0830  -29.5750    5.0630 c3      1554 PE       0.039600
   9325 H11         6.7830  -29.0550    3.3130 hc      1555 PE      -0.019800
   9326 H12         6.9630  -30.7150    3.5330 hc      1555 PE      -0.019800
   9327 H21         5.2930  -28.8350    5.2830 hc      1555 PE      -0.019800
   9328 H22         5.6530  -30.5050    5.7730 hc      1555 PE      -0.019800
   9329 C1          6.9130  -29.7850    4.1130 c3      1555 PE       0.039600
   9330 C2          5.5230  -29.8450    4.9130 c3      1555 PE       0.039600
   9331 H11         4.1330  -29.6150    3.2530 hc      1556 PE      -0.019800
   9332 H12         4.4030  -31.3450    3.7230 hc      1556 PE      -0.019800
   9333 H21         2.7130  -28.9350    4.8830 hc      1556 PE      -0.019800
   9334 H22         2.9630  -30.4850    5.8930 hc      1556 PE      -0.019800
   9335 C1          4.2630  -30.3250    4.0930 c3      1556 PE       0.039600
   9336 C2          2.8430  -30.0250    4.9030 c3      1556 PE       0.039600
   9337 H11         1.6530  -30.3150    3.0530 hc      1557 PE      -0.019800
   9338 H12         1.8430  -31.7250    4.0030 hc      1557 PE      -0.019800
   9339 H21         0.2630  -29.2650    4.8230 hc      1557 PE      -0.019800
   9340 H22         0.2230  -30.6650    5.7630 hc      1557 PE      -0.019800
   9341 C1          1.7030  -30.6450    4.1030 c3      1557 PE       0.039600
   9342 C2          0.3130  -30.3550    4.7230 c3      1557 PE       0.039600
   9343 H11        -1.0070  -30.6950    3.0030 hc      1558 PE      -0.019800
   9344 H12        -0.6070  -32.1050    4.1130 hc      1558 PE      -0.019800
   9345 H21        -2.2870  -29.6950    5.1630 hc      1558 PE      -0.019800
   9346 H22        -1.9870  -31.2750    5.8330 hc      1558 PE      -0.019800
   9347 C1         -0.8570  -31.0350    4.0330 c3      1558 PE       0.039600
   9348 C2         -2.1470  -30.7550    4.8830 c3      1558 PE       0.039600
   9349 H11        -3.5270  -30.7950    3.2930 hc      1559 PE      -0.019800
   9350 H12        -3.1770  -32.3950    4.1030 hc      1559 PE      -0.019800
   9351 H21        -4.5970  -30.1550    5.4430 hc      1559 PE      -0.019800
   9352 H22        -4.6770  -31.9050    5.7630 hc      1559 PE      -0.019800
   9353 C1         -3.3970  -31.3350    4.2430 c3      1559 PE       0.039600
   9354 C2         -4.6670  -31.1450    4.9730 c3      1559 PE       0.039600
   9355 H11        -5.8770  -30.4050    3.2030 hc      1560 PE      -0.019800
   9356 H12        -5.9370  -32.1250    3.6030 hc      1560 PE      -0.019800
   9357 H21        -7.6870  -31.6750    5.4530 hc      1560 PE      -0.019800
   9358 H22        -8.1070  -30.9650    4.0430 hc      1560 PE      -0.019800
   9359 C1         -5.9770  -31.1150    4.0330 c3      1560 PE       0.039600
   9360 C2         -7.3170  -30.8750    4.8030 c3      1560 PE       0.039600
   9361 H11        35.2930  -25.4050   -9.1670 hc      1561 PE      -0.019800
   9362 H12        36.2830  -25.6950   -7.8670 hc      1561 PE      -0.019800
   9363 H21        33.9630  -26.2450   -6.9670 hc      1561 PE      -0.019800
   9364 H22        34.8130  -27.7650   -7.1770 hc      1561 PE      -0.019800
   9365 C1         35.5830  -26.2350   -8.5170 c3      1561 PE       0.039600
   9366 C2         34.3630  -26.9250   -7.7270 c3      1561 PE       0.039600
   9367 H11        33.1830  -26.7250   -9.3970 hc      1562 PE      -0.019800
   9368 H12        33.5430  -28.3650   -9.1670 hc      1562 PE      -0.019800
   9369 H21        31.6630  -26.9150   -7.2170 hc      1562 PE      -0.019800
   9370 H22        32.0130  -28.5350   -7.0670 hc      1562 PE      -0.019800
   9371 C1         33.2230  -27.4750   -8.5970 c3      1562 PE       0.039600
   9372 C2         31.9730  -27.7550   -7.8470 c3      1562 PE       0.039600
   9373 H11        30.7530  -27.2150   -9.5470 hc      1563 PE      -0.019800
   9374 H12        30.9130  -29.0150   -9.3370 hc      1563 PE      -0.019800
   9375 H21        29.2830  -26.8650   -7.8170 hc      1563 PE      -0.019800
   9376 H22        29.3830  -28.4650   -7.0970 hc      1563 PE      -0.019800
   9377 C1         30.7830  -28.0450   -8.8370 c3      1563 PE       0.039600
   9378 C2         29.3630  -27.9350   -8.0570 c3      1563 PE       0.039600
   9379 H11        28.1830  -27.7950   -9.9470 hc      1564 PE      -0.019800
   9380 H12        28.3030  -29.3250   -9.2470 hc      1564 PE      -0.019800
   9381 H21        26.5530  -27.0250   -8.2870 hc      1564 PE      -0.019800
   9382 H22        26.8530  -28.3650   -7.1870 hc      1564 PE      -0.019800
   9383 C1         28.1530  -28.2750   -8.9670 c3      1564 PE       0.039600
   9384 C2         26.8130  -28.0950   -8.2470 c3      1564 PE       0.039600
   9385 H11        25.6530  -28.5750  -10.0370 hc      1565 PE      -0.019800
   9386 H12        25.9030  -29.9250   -8.9770 hc      1565 PE      -0.019800
   9387 H21        24.0830  -27.4150   -8.5270 hc      1565 PE      -0.019800
   9388 H22        24.2930  -28.7450   -7.3370 hc      1565 PE      -0.019800
   9389 C1         25.6830  -28.8450   -8.9770 c3      1565 PE       0.039600
   9390 C2         24.2430  -28.4950   -8.3970 c3      1565 PE       0.039600
   9391 H11        23.0330  -29.0350  -10.1770 hc      1566 PE      -0.019800
   9392 H12        23.2530  -30.2750   -8.9470 hc      1566 PE      -0.019800
   9393 H21        21.6530  -27.9150   -8.0070 hc      1566 PE      -0.019800
   9394 H22        21.9130  -29.4750   -7.4270 hc      1566 PE      -0.019800
   9395 C1         23.0730  -29.2050   -9.0970 c3      1566 PE       0.039600
   9396 C2         21.7330  -28.9450   -8.3770 c3      1566 PE       0.039600
   9397 H11        20.4030  -29.1350  -10.0670 hc      1567 PE      -0.019800
   9398 H12        20.7130  -30.5950   -9.2470 hc      1567 PE      -0.019800
   9399 H21        19.1430  -28.4850   -7.7370 hc      1567 PE      -0.019800
   9400 H22        19.5630  -30.0550   -7.1970 hc      1567 PE      -0.019800
   9401 C1         20.5230  -29.5350   -9.0470 c3      1567 PE       0.039600
   9402 C2         19.3430  -29.4950   -8.1070 c3      1567 PE       0.039600
   9403 H11        18.1030  -29.5650   -9.7670 hc      1568 PE      -0.019800
   9404 H12        18.2630  -31.1750   -9.1470 hc      1568 PE      -0.019800
   9405 H21        16.6230  -29.0950   -7.5670 hc      1568 PE      -0.019800
   9406 H22        16.7230  -30.7550   -7.2370 hc      1568 PE      -0.019800
   9407 C1         18.1230  -30.1350   -8.8270 c3      1568 PE       0.039600
   9408 C2         16.7730  -30.0550   -8.0870 c3      1568 PE       0.039600
   9409 H11        15.5930  -29.6050   -9.8070 hc      1569 PE      -0.019800
   9410 H12        15.4530  -31.2450   -9.3870 hc      1569 PE      -0.019800
   9411 H21        14.1330  -29.0550   -7.8670 hc      1569 PE      -0.019800
   9412 H22        14.1830  -30.7550   -7.2870 hc      1569 PE      -0.019800
   9413 C1         15.4830  -30.2550   -8.9270 c3      1569 PE       0.039600
   9414 C2         14.2030  -30.1050   -8.1770 c3      1569 PE       0.039600
   9415 H11        12.7830  -29.7850   -9.7870 hc      1570 PE      -0.019800
   9416 H12        13.0330  -31.4850   -9.5370 hc      1570 PE      -0.019800
   9417 H21        11.4830  -29.5850   -7.6970 hc      1570 PE      -0.019800
   9418 H22        11.8030  -31.3450   -7.4170 hc      1570 PE      -0.019800
   9419 C1         12.9330  -30.5350   -8.9970 c3      1570 PE       0.039600
   9420 C2         11.6630  -30.5550   -8.1770 c3      1570 PE       0.039600
   9421 H11        10.2730  -29.9650   -9.7670 hc      1571 PE      -0.019800
   9422 H12        10.6230  -31.7250   -9.7670 hc      1571 PE      -0.019800
   9423 H21         8.9930  -30.2550   -7.7070 hc      1571 PE      -0.019800
   9424 H22         9.3630  -32.0750   -7.6670 hc      1571 PE      -0.019800
   9425 C1         10.4530  -30.8450   -9.1270 c3      1571 PE       0.039600
   9426 C2          9.1830  -31.1750   -8.2570 c3      1571 PE       0.039600
   9427 H11         7.5830  -30.4150   -9.5770 hc      1572 PE      -0.019800
   9428 H12         8.0430  -32.1050   -9.9170 hc      1572 PE      -0.019800
   9429 H21         6.5730  -30.8850   -7.4970 hc      1572 PE      -0.019800
   9430 H22         6.9230  -32.5650   -7.6270 hc      1572 PE      -0.019800
   9431 C1          7.8630  -31.3750   -9.1170 c3      1572 PE       0.039600
   9432 C2          6.6430  -31.6950   -8.2370 c3      1572 PE       0.039600
   9433 H11         5.3130  -30.9350   -9.6970 hc      1573 PE      -0.019800
   9434 H12         5.2130  -32.6650   -9.7470 hc      1573 PE      -0.019800
   9435 H21         3.9430  -30.7750   -7.5670 hc      1573 PE      -0.019800
   9436 H22         4.2630  -32.3950   -7.2970 hc      1573 PE      -0.019800
   9437 C1          5.3230  -31.8150   -9.0470 c3      1573 PE       0.039600
   9438 C2          4.1230  -31.6950   -8.1370 c3      1573 PE       0.039600
   9439 H11         2.5930  -31.2550   -9.5470 hc      1574 PE      -0.019800
   9440 H12         3.1130  -32.9450   -9.5970 hc      1574 PE      -0.019800
   9441 H21         1.6830  -31.5850   -7.3570 hc      1574 PE      -0.019800
   9442 H22         1.9530  -33.3850   -7.4870 hc      1574 PE      -0.019800
   9443 C1          2.8530  -32.1150   -8.9270 c3      1574 PE       0.039600
   9444 C2          1.6830  -32.4550   -8.0170 c3      1574 PE       0.039600
   9445 H11         0.2430  -31.9450   -9.5570 hc      1575 PE      -0.019800
   9446 H12         0.4630  -33.7050   -9.3270 hc      1575 PE      -0.019800
   9447 H21        -1.0170  -31.6750   -7.2970 hc      1575 PE      -0.019800
   9448 H22        -0.7470  -33.3050   -7.0370 hc      1575 PE      -0.019800
   9449 C1          0.3730  -32.7350   -8.8070 c3      1575 PE       0.039600
   9450 C2         -0.8770  -32.5950   -7.8570 c3      1575 PE       0.039600
   9451 H11        -2.1770  -32.2050   -9.5370 hc      1576 PE      -0.019800
   9452 H12        -2.0470  -33.9050   -9.2170 hc      1576 PE      -0.019800
   9453 H21        -3.7070  -31.9450   -7.5570 hc      1576 PE      -0.019800
   9454 H22        -3.2570  -33.5950   -6.9970 hc      1576 PE      -0.019800
   9455 C1         -2.1370  -32.9350   -8.7170 c3      1576 PE       0.039600
   9456 C2         -3.4470  -32.9650   -7.8770 c3      1576 PE       0.039600
   9457 H11        -4.8270  -33.0450   -9.6270 hc      1577 PE      -0.019800
   9458 H12        -4.1170  -34.5150   -9.3170 hc      1577 PE      -0.019800
   9459 H21        -6.6370  -34.2450   -8.7270 hc      1577 PE      -0.019800
   9460 H22        -6.2370  -32.8950   -7.7670 hc      1577 PE      -0.019800
   9461 C1         -4.5170  -33.6450   -8.7670 c3      1577 PE       0.039600
   9462 C2         -5.8470  -33.8750   -8.0670 c3      1577 PE       0.039600
   9463 H11        -5.2070  -35.7550   -7.1070 hc      1578 PE      -0.019800
   9464 H12        -5.4370  -34.3250   -6.0370 hc      1578 PE      -0.019800
   9465 H21        -7.5270  -36.0750   -7.2670 hc      1578 PE      -0.019800
   9466 H22        -7.9570  -34.5150   -6.5670 hc      1578 PE      -0.019800
   9467 C1         -5.8370  -34.8850   -6.8870 c3      1578 PE       0.039600
   9468 C2         -7.2370  -35.3450   -6.4970 c3      1578 PE       0.039600
   9469 H11        -6.9570  -35.4050   -4.2570 hc      1579 PE      -0.019800
   9470 H12        -8.4470  -36.0850   -4.8770 hc      1579 PE      -0.019800
   9471 H21        -5.7170  -37.3050   -5.4570 hc      1579 PE      -0.019800
   9472 H22        -7.2170  -37.8750   -6.0070 hc      1579 PE      -0.019800
   9473 C1         -7.3770  -35.9650   -5.0870 c3      1579 PE       0.039600
   9474 C2         -6.7670  -37.3450   -5.1570 c3      1579 PE       0.039600
   9475 H11        -6.6470  -37.6750   -2.9570 hc      1580 PE      -0.019800
   9476 H12        -8.1470  -38.0650   -3.7870 hc      1580 PE      -0.019800
   9477 H21        -7.1770  -40.0650   -4.7970 hc      1580 PE      -0.019800
   9478 H22        -6.8370  -40.0750   -3.0570 hc      1580 PE      -0.019800
   9479 C1         -7.0570  -38.1350   -3.8670 c3      1580 PE       0.039600
   9480 C2         -6.5770  -39.5850   -4.0070 c3      1580 PE       0.039600
   9481 H11        -4.9870   40.5050   -5.5170 hc      1581 PE      -0.019800
   9482 H12        -4.4470   40.9750   -3.9870 hc      1581 PE      -0.019800
   9483 H21        -5.0670   38.0550   -4.7370 hc      1581 PE      -0.019800
   9484 H22        -4.6470   38.7250   -3.1170 hc      1581 PE      -0.019800
   9485 C1         -5.0870   40.2250   -4.4570 c3      1581 PE       0.039600
   9486 C2         -4.5370   38.8450   -4.1970 c3      1581 PE       0.039600
   9487 H11        -2.7570   39.1850   -5.5370 hc      1582 PE      -0.019800
   9488 H12        -2.5070   39.5350   -3.8670 hc      1582 PE      -0.019800
   9489 H21        -2.9970   36.7150   -5.0270 hc      1582 PE      -0.019800
   9490 H22        -2.6570   36.9450   -3.2970 hc      1582 PE      -0.019800
   9491 C1         -2.9870   38.8050   -4.5270 c3      1582 PE       0.039600
   9492 C2         -2.4470   37.3250   -4.3070 c3      1582 PE       0.039600
   9493 H11        -0.7770   37.4450   -5.6170 hc      1583 PE      -0.019800
   9494 H12        -0.4470   37.9450   -3.9070 hc      1583 PE      -0.019800
   9495 H21        -0.7870   35.0550   -5.1270 hc      1583 PE      -0.019800
   9496 H22        -0.6770   35.2950   -3.4170 hc      1583 PE      -0.019800
   9497 C1         -0.9570   37.2150   -4.5570 c3      1583 PE       0.039600
   9498 C2         -0.3670   35.7350   -4.3670 c3      1583 PE       0.039600
   9499 H11         1.6530   36.3850   -5.0970 hc      1584 PE      -0.019800
   9500 H12         1.4430   36.2550   -3.4570 hc      1584 PE      -0.019800
   9501 H21         1.5130   33.8150   -5.3170 hc      1584 PE      -0.019800
   9502 H22         1.4230   33.8150   -3.5170 hc      1584 PE      -0.019800
   9503 C1          1.1530   35.7350   -4.3670 c3      1584 PE       0.039600
   9504 C2          1.7830   34.3550   -4.4070 c3      1584 PE       0.039600
   9505 H11         3.6630   35.2350   -4.9170 hc      1585 PE      -0.019800
   9506 H12         3.3730   34.9250   -3.2270 hc      1585 PE      -0.019800
   9507 H21         3.8630   32.6050   -5.0770 hc      1585 PE      -0.019800
   9508 H22         3.8130   32.5150   -3.3570 hc      1585 PE      -0.019800
   9509 C1          3.2930   34.4750   -4.2270 c3      1585 PE       0.039600
   9510 C2          4.1430   33.1650   -4.1770 c3      1585 PE       0.039600
   9511 H11         5.8730   34.1150   -4.7170 hc      1586 PE      -0.019800
   9512 H12         5.7730   33.9250   -2.9470 hc      1586 PE      -0.019800
   9513 H21         6.1330   31.5250   -4.9570 hc      1586 PE      -0.019800
   9514 H22         6.2630   31.4650   -3.2370 hc      1586 PE      -0.019800
   9515 C1          5.6230   33.4150   -3.9070 c3      1586 PE       0.039600
   9516 C2          6.4430   32.1250   -4.0970 c3      1586 PE       0.039600
   9517 H11         8.1030   32.9850   -5.1470 hc      1587 PE      -0.019800
   9518 H12         8.3130   32.7550   -3.3370 hc      1587 PE      -0.019800
   9519 H21         8.4430   30.4050   -5.2770 hc      1587 PE      -0.019800
   9520 H22         8.6830   30.3550   -3.4870 hc      1587 PE      -0.019800
   9521 C1          7.9930   32.3050   -4.2870 c3      1587 PE       0.039600
   9522 C2          8.7730   30.9650   -4.3970 c3      1587 PE       0.039600
   9523 H11        10.2530   31.4050   -5.7170 hc      1588 PE      -0.019800
   9524 H12        10.7130   31.8250   -3.9870 hc      1588 PE      -0.019800
   9525 H21        10.3430   28.9750   -5.1670 hc      1588 PE      -0.019800
   9526 H22        10.9230   29.3150   -3.6070 hc      1588 PE      -0.019800
   9527 C1         10.2430   31.0950   -4.6670 c3      1588 PE       0.039600
   9528 C2         10.9730   29.6950   -4.6370 c3      1588 PE       0.039600
   9529 H11        12.4030   29.8350   -6.2370 hc      1589 PE      -0.019800
   9530 H12        12.9530   30.7050   -4.8170 hc      1589 PE      -0.019800
   9531 H21        12.8130   27.6450   -5.2770 hc      1589 PE      -0.019800
   9532 H22        13.2630   28.2750   -3.7170 hc      1589 PE      -0.019800
   9533 C1         12.4530   29.7850   -5.1370 c3      1589 PE       0.039600
   9534 C2         13.3030   28.4950   -4.7870 c3      1589 PE       0.039600
   9535 H11        14.6530   28.6650   -6.5670 hc      1590 PE      -0.019800
   9536 H12        15.1730   29.5750   -5.1570 hc      1590 PE      -0.019800
   9537 H21        16.0930   27.5150   -4.1970 hc      1590 PE      -0.019800
   9538 H22        15.1730   26.5350   -5.3270 hc      1590 PE      -0.019800
   9539 C1         14.7130   28.6250   -5.4770 c3      1590 PE       0.039600
   9540 C2         15.6830   27.5050   -5.2070 c3      1590 PE       0.039600
   9541 H11        36.5930   -1.5650    3.3230 hc      1591 PE      -0.019800
   9542 H12        36.9130   -0.3650    4.5830 hc      1591 PE      -0.019800
   9543 H21        34.8130   -0.5350    5.5530 hc      1591 PE      -0.019800
   9544 H22        35.4530   -2.1350    5.4030 hc      1591 PE      -0.019800
   9545 C1         36.1530   -0.7350    3.8830 c3      1591 PE       0.039600
   9546 C2         35.0230   -1.3250    4.8130 c3      1591 PE       0.039600
   9547 H11        33.3430   -0.7050    3.4730 hc      1592 PE      -0.019800
   9548 H12        33.9930   -2.3550    3.3030 hc      1592 PE      -0.019800
   9549 H21        32.2630   -1.5050    5.6730 hc      1592 PE      -0.019800
   9550 H22        32.8930   -3.0850    5.3730 hc      1592 PE      -0.019800
   9551 C1         33.7030   -1.5850    4.0230 c3      1592 PE       0.039600
   9552 C2         32.5730   -2.1750    4.8530 c3      1592 PE       0.039600
   9553 H11        31.1230   -1.5750    3.4130 hc      1593 PE      -0.019800
   9554 H12        31.6830   -3.1950    3.2030 hc      1593 PE      -0.019800
   9555 H21        30.0630   -2.1950    5.6430 hc      1593 PE      -0.019800
   9556 H22        30.6530   -3.8150    5.4730 hc      1593 PE      -0.019800
   9557 C1         31.4030   -2.4750    3.9830 c3      1593 PE       0.039600
   9558 C2         30.2330   -2.9750    4.8930 c3      1593 PE       0.039600
   9559 H11        28.8730   -2.6050    3.3330 hc      1594 PE      -0.019800
   9560 H12        29.1230   -4.3850    3.5230 hc      1594 PE      -0.019800
   9561 H21        27.4630   -2.5950    5.3430 hc      1594 PE      -0.019800
   9562 H22        27.9030   -4.3250    5.6030 hc      1594 PE      -0.019800
   9563 C1         28.9930   -3.4250    4.0430 c3      1594 PE       0.039600
   9564 C2         27.6930   -3.5450    4.8530 c3      1594 PE       0.039600
   9565 H11        26.4230   -3.7050    3.0730 hc      1595 PE      -0.019800
   9566 H12        26.8630   -5.1950    3.7330 hc      1595 PE      -0.019800
   9567 H21        24.8730   -3.2750    5.1730 hc      1595 PE      -0.019800
   9568 H22        25.2330   -4.8750    5.6830 hc      1595 PE      -0.019800
   9569 C1         26.5730   -4.1850    4.0430 c3      1595 PE       0.039600
   9570 C2         25.1730   -4.2550    4.7830 c3      1595 PE       0.039600
   9571 H11        23.8930   -4.1750    3.0530 hc      1596 PE      -0.019800
   9572 H12        24.3730   -5.8850    3.5330 hc      1596 PE      -0.019800
   9573 H21        22.6130   -3.9550    5.0830 hc      1596 PE      -0.019800
   9574 H22        23.1030   -5.6050    5.4930 hc      1596 PE      -0.019800
   9575 C1         24.0930   -4.8750    3.8730 c3      1596 PE       0.039600
   9576 C2         22.8330   -4.9450    4.6530 c3      1596 PE       0.039600
   9577 H11        21.3530   -4.8950    3.0130 hc      1597 PE      -0.019800
   9578 H12        21.7130   -6.5250    3.5630 hc      1597 PE      -0.019800
   9579 H21        20.0030   -4.3150    4.6230 hc      1597 PE      -0.019800
   9580 H22        20.4530   -5.5750    5.8330 hc      1597 PE      -0.019800
   9581 C1         21.5930   -5.4850    3.9030 c3      1597 PE       0.039600
   9582 C2         20.3030   -5.3550    4.7730 c3      1597 PE       0.039600
   9583 H11        19.0330   -5.8650    3.1330 hc      1598 PE      -0.019800
   9584 H12        19.4730   -7.2650    4.0430 hc      1598 PE      -0.019800
   9585 H21        17.7030   -4.8350    5.1930 hc      1598 PE      -0.019800
   9586 H22        17.8430   -6.4250    5.8930 hc      1598 PE      -0.019800
   9587 C1         19.1830   -6.2150    4.1630 c3      1598 PE       0.039600
   9588 C2         17.8230   -5.8950    4.9330 c3      1598 PE       0.039600
   9589 H11        16.5230   -5.4650    3.3830 hc      1599 PE      -0.019800
   9590 H12        16.8230   -7.1850    3.4930 hc      1599 PE      -0.019800
   9591 H21        15.1430   -5.5850    5.5130 hc      1599 PE      -0.019800
   9592 H22        15.3430   -7.2850    5.6230 hc      1599 PE      -0.019800
   9593 C1         16.6430   -6.2950    4.0930 c3      1599 PE       0.039600
   9594 C2         15.2830   -6.4750    4.8830 c3      1599 PE       0.039600
   9595 H11        13.9330   -5.9950    3.2930 hc      1600 PE      -0.019800
   9596 H12        14.3030   -7.6150    3.2630 hc      1600 PE      -0.019800
   9597 H21        12.6330   -6.0950    5.3830 hc      1600 PE      -0.019800
   9598 H22        12.8730   -7.8250    5.5030 hc      1600 PE      -0.019800
   9599 C1         14.1030   -6.8150    3.9930 c3      1600 PE       0.039600
   9600 C2         12.7930   -6.9950    4.7930 c3      1600 PE       0.039600
   9601 H11        11.4030   -6.6350    3.1830 hc      1601 PE      -0.019800
   9602 H12        11.8630   -8.3850    3.5430 hc      1601 PE      -0.019800
   9603 H21        10.1530   -6.7150    5.4630 hc      1601 PE      -0.019800
   9604 H22        10.2930   -8.5250    5.3630 hc      1601 PE      -0.019800
   9605 C1         11.6030   -7.3950    3.9530 c3      1601 PE       0.039600
   9606 C2         10.2930   -7.5850    4.8030 c3      1601 PE       0.039600
   9607 H11         8.8530   -6.7850    3.1830 hc      1602 PE      -0.019800
   9608 H12         8.9830   -8.5350    3.2830 hc      1602 PE      -0.019800
   9609 H21         7.8230   -6.7650    5.4130 hc      1602 PE      -0.019800
   9610 H22         7.7330   -8.5550    5.3730 hc      1602 PE      -0.019800
   9611 C1          8.9730   -7.6250    3.8830 c3      1602 PE       0.039600
   9612 C2          7.7230   -7.6450    4.7630 c3      1602 PE       0.039600
   9613 H11         6.4830   -6.6150    3.3630 hc      1603 PE      -0.019800
   9614 H12         6.5530   -8.2950    3.0430 hc      1603 PE      -0.019800
   9615 H21         5.1130   -6.9250    5.4330 hc      1603 PE      -0.019800
   9616 H22         4.9730   -8.5850    5.1030 hc      1603 PE      -0.019800
   9617 C1          6.4630   -7.5850    3.8730 c3      1603 PE       0.039600
   9618 C2          5.0830   -7.6150    4.5830 c3      1603 PE       0.039600
   9619 H11         3.8130   -6.3750    3.3030 hc      1604 PE      -0.019800
   9620 H12         3.6630   -8.1050    2.9530 hc      1604 PE      -0.019800
   9621 H21         2.5530   -6.8850    5.4630 hc      1604 PE      -0.019800
   9622 H22         2.2430   -8.4850    4.8430 hc      1604 PE      -0.019800
   9623 C1          3.8030   -7.3750    3.7630 c3      1604 PE       0.039600
   9624 C2          2.4030   -7.4450    4.5330 c3      1604 PE       0.039600
   9625 H11         1.4430   -6.2050    3.0030 hc      1605 PE      -0.019800
   9626 H12         0.6730   -7.7350    3.1430 hc      1605 PE      -0.019800
   9627 H21         0.4730   -5.8750    5.5530 hc      1605 PE      -0.019800
   9628 H22        -0.6070   -7.1350    4.9330 hc      1605 PE      -0.019800
   9629 C1          1.1130   -6.9350    3.7530 c3      1605 PE       0.039600
   9630 C2          0.0430   -6.2950    4.6430 c3      1605 PE       0.039600
   9631 H11        -1.2270   -5.5550    2.9830 hc      1606 PE      -0.019800
   9632 H12        -1.6870   -5.0850    4.6030 hc      1606 PE      -0.019800
   9633 H21         0.8430   -4.0550    3.0630 hc      1606 PE      -0.019800
   9634 H22         0.2430   -3.4550    4.6030 hc      1606 PE      -0.019800
   9635 C1         -0.8170   -5.2450    3.9530 c3      1606 PE       0.039600
   9636 C2         -0.0670   -3.9150    3.6630 c3      1606 PE       0.039600
   9637 H11        -1.0970   -2.9450    1.9130 hc      1607 PE      -0.019800
   9638 H12        -2.0370   -3.0350    3.3630 hc      1607 PE      -0.019800
   9639 H21        -0.3470   -1.3450    4.3730 hc      1607 PE      -0.019800
   9640 H22        -1.6470   -0.7350    3.2730 hc      1607 PE      -0.019800
   9641 C1         -1.0170   -2.8750    3.0030 c3      1607 PE       0.039600
   9642 C2         -0.7470   -1.3550    3.3530 c3      1607 PE       0.039600
   9643 H11         1.3130   -1.3850    2.5130 hc      1608 PE      -0.019800
   9644 H12         0.2930   -0.8850    1.3730 hc      1608 PE      -0.019800
   9645 H21        -0.1970    1.2850    2.9330 hc      1608 PE      -0.019800
   9646 H22         0.9930    1.1750    1.7430 hc      1608 PE      -0.019800
   9647 C1          0.4130   -0.7650    2.4530 c3      1608 PE       0.039600
   9648 C2          0.7130    0.7150    2.6930 c3      1608 PE       0.039600
   9649 H11         1.5030    0.6350    4.7530 hc      1609 PE      -0.019800
   9650 H12         2.7430    0.4450    3.4030 hc      1609 PE      -0.019800
   9651 H21         1.4330    2.9850    3.8130 hc      1609 PE      -0.019800
   9652 H22         2.8530    2.5050    2.7730 hc      1609 PE      -0.019800
   9653 C1          1.8330    0.9450    3.7530 c3      1609 PE       0.039600
   9654 C2          2.3130    2.3450    3.7130 c3      1609 PE       0.039600
   9655 H11         2.5830    2.6650    5.8030 hc      1610 PE      -0.019800
   9656 H12         3.9230    1.8150    5.1230 hc      1610 PE      -0.019800
   9657 H21         3.2730    4.7850    4.6830 hc      1610 PE      -0.019800
   9658 H22         4.5530    4.0850    3.9530 hc      1610 PE      -0.019800
   9659 C1          3.2530    2.6650    4.9330 c3      1610 PE       0.039600
   9660 C2          4.0530    4.0550    4.9330 c3      1610 PE       0.039600
   9661 H11         5.0330    5.4650    6.3530 hc      1611 PE      -0.019800
   9662 H12         4.4830    3.8950    7.0630 hc      1611 PE      -0.019800
   9663 H21         6.8230    4.5450    5.3030 hc      1611 PE      -0.019800
   9664 H22         6.1730    2.8350    5.6630 hc      1611 PE      -0.019800
   9665 C1          4.8730    4.3950    6.1730 c3      1611 PE       0.039600
   9666 C2          6.3430    3.8550    6.0030 c3      1611 PE       0.039600
   9667 H11         6.9630    4.9050    7.8930 hc      1612 PE      -0.019800
   9668 H12         6.5930    3.1550    8.1130 hc      1612 PE      -0.019800
   9669 H21         8.9930    4.2650    6.6730 hc      1612 PE      -0.019800
   9670 H22         8.6830    2.5050    7.1030 hc      1612 PE      -0.019800
   9671 C1          7.0230    3.9050    7.4430 c3      1612 PE       0.039600
   9672 C2          8.5330    3.5550    7.3630 c3      1612 PE       0.039600
   9673 H11         9.3230    4.5950    9.1930 hc      1613 PE      -0.019800
   9674 H12         8.6330    3.0150    9.4230 hc      1613 PE      -0.019800
   9675 H21        10.6530    2.2450    7.7330 hc      1613 PE      -0.019800
   9676 H22        10.6930    2.1150    9.4330 hc      1613 PE      -0.019800
   9677 C1          9.2630    3.5950    8.7430 c3      1613 PE       0.039600
   9678 C2         10.5830    2.8650    8.6430 c3      1613 PE       0.039600
   9679 H11        11.5830    4.7550    8.2130 hc      1614 PE      -0.019800
   9680 H12        11.8430    4.1550    9.8630 hc      1614 PE      -0.019800
   9681 H21        13.2130    3.3450    7.2230 hc      1614 PE      -0.019800
   9682 H22        13.4430    2.2250    8.5430 hc      1614 PE      -0.019800
   9683 C1         11.8130    3.8650    8.8030 c3      1614 PE       0.039600
   9684 C2         13.2130    3.2750    8.3130 c3      1614 PE       0.039600
   9685 H11        14.1730    5.2350    8.5830 hc      1615 PE      -0.019800
   9686 H12        14.4730    4.0050    9.9430 hc      1615 PE      -0.019800
   9687 H21        15.6630    4.0750    7.1430 hc      1615 PE      -0.019800
   9688 H22        15.8830    2.6750    8.3730 hc      1615 PE      -0.019800
   9689 C1         14.3830    4.1950    8.8630 c3      1615 PE       0.039600
   9690 C2         15.7030    3.7450    8.1930 c3      1615 PE       0.039600
   9691 H11        16.5130    5.5150    9.1530 hc      1616 PE      -0.019800
   9692 H12        17.0830    3.9150    9.7530 hc      1616 PE      -0.019800
   9693 H21        17.9630    5.1850    7.0830 hc      1616 PE      -0.019800
   9694 H22        18.4330    3.6250    7.6130 hc      1616 PE      -0.019800
   9695 C1         16.8630    4.5150    8.8530 c3      1616 PE       0.039600
   9696 C2         18.1730    4.6150    8.0030 c3      1616 PE       0.039600
   9697 H11        19.3230    5.7850    9.5530 hc      1617 PE      -0.019800
   9698 H12        19.6830    4.0550    9.4230 hc      1617 PE      -0.019800
   9699 H21        20.5730    6.0450    7.4130 hc      1617 PE      -0.019800
   9700 H22        20.8530    4.2950    7.4630 hc      1617 PE      -0.019800
   9701 C1         19.4730    4.9650    8.8430 c3      1617 PE       0.039600
   9702 C2         20.7430    5.1950    8.0830 c3      1617 PE       0.039600
   9703 H11        21.6030    6.3550    9.7830 hc      1618 PE      -0.019800
   9704 H12        22.2430    4.6950    9.5930 hc      1618 PE      -0.019800
   9705 H21        22.8630    6.8450    7.7130 hc      1618 PE      -0.019800
   9706 H22        23.5530    5.1950    7.6630 hc      1618 PE      -0.019800
   9707 C1         21.8930    5.5850    9.0530 c3      1618 PE       0.039600
   9708 C2         23.1530    5.9750    8.3230 c3      1618 PE       0.039600
   9709 H11        23.9430    7.1550    9.9430 hc      1619 PE      -0.019800
   9710 H12        24.4830    5.5650    9.9730 hc      1619 PE      -0.019800
   9711 H21        25.3430    7.6950    7.9730 hc      1619 PE      -0.019800
   9712 H22        25.8830    6.0150    7.7730 hc      1619 PE      -0.019800
   9713 C1         24.3030    6.3750    9.2630 c3      1619 PE       0.039600
   9714 C2         25.6230    6.7850    8.5130 c3      1619 PE       0.039600
   9715 H11        26.3430    7.8250   10.1630 hc      1620 PE      -0.019800
   9716 H12        27.0630    6.1850   10.0230 hc      1620 PE      -0.019800
   9717 H21        27.7030    8.4750    8.0530 hc      1620 PE      -0.019800
   9718 H22        28.8330    7.8050    9.3230 hc      1620 PE      -0.019800
   9719 C1         26.7530    7.0850    9.4730 c3      1620 PE       0.039600
   9720 C2         27.9930    7.6050    8.6430 c3      1620 PE       0.039600
   9721 H11       -18.3770   15.4250   -7.3470 hc      1621 PE      -0.019800
   9722 H12       -17.5770   14.2550   -8.4170 hc      1621 PE      -0.019800
   9723 H21       -19.7570   13.9950   -9.0470 hc      1621 PE      -0.019800
   9724 H22       -20.4770   14.1150   -7.5470 hc      1621 PE      -0.019800
   9725 C1        -18.2670   14.3550   -7.5670 c3      1621 PE       0.039600
   9726 C2        -19.5770   13.6950   -8.0070 c3      1621 PE       0.039600
   9727 H11       -18.5970   11.8150   -8.1970 hc      1622 PE      -0.019800
   9728 H12       -19.3670   11.8350   -6.6770 hc      1622 PE      -0.019800
   9729 H21       -21.2070   11.9250   -9.1070 hc      1622 PE      -0.019800
   9730 H22       -21.4670   11.3150   -7.4770 hc      1622 PE      -0.019800
   9731 C1        -19.5270   12.1450   -7.7170 c3      1622 PE       0.039600
   9732 C2        -20.7370   11.3750   -8.2970 c3      1622 PE       0.039600
   9733 H11       -19.5070    9.9950   -9.3070 hc      1623 PE      -0.019800
   9734 H12       -19.8470    9.5250   -7.6470 hc      1623 PE      -0.019800
   9735 H21       -21.6470    9.2250  -10.0770 hc      1623 PE      -0.019800
   9736 H22       -22.3770    9.3250   -8.4470 hc      1623 PE      -0.019800
   9737 C1        -20.3070    9.9250   -8.5570 c3      1623 PE       0.039600
   9738 C2        -21.4670    9.0750   -9.0070 c3      1623 PE       0.039600
   9739 H11       -20.4870    7.2850   -9.6670 hc      1624 PE      -0.019800
   9740 H12       -20.6970    7.3850   -7.9370 hc      1624 PE      -0.019800
   9741 H21       -23.0870    6.8150   -9.9070 hc      1624 PE      -0.019800
   9742 H22       -23.2670    7.0350   -8.2970 hc      1624 PE      -0.019800
   9743 C1        -21.2170    7.5350   -8.8970 c3      1624 PE       0.039600
   9744 C2        -22.5070    6.6450   -8.9870 c3      1624 PE       0.039600
   9745 H11       -21.5570    4.6950   -9.5870 hc      1625 PE      -0.019800
   9746 H12       -21.6070    4.9950   -7.8370 hc      1625 PE      -0.019800
   9747 H21       -24.2270    4.7150   -9.3670 hc      1625 PE      -0.019800
   9748 H22       -23.9770    4.6550   -7.6670 hc      1625 PE      -0.019800
   9749 C1        -22.1670    5.1250   -8.7770 c3      1625 PE       0.039600
   9750 C2        -23.5070    4.3550   -8.6170 c3      1625 PE       0.039600
   9751 H11       -23.0170    2.6750   -9.8970 hc      1626 PE      -0.019800
   9752 H12       -22.8670    2.4050   -8.1470 hc      1626 PE      -0.019800
   9753 H21       -25.4270    2.4850   -9.6570 hc      1626 PE      -0.019800
   9754 H22       -25.4070    2.5350   -7.8870 hc      1626 PE      -0.019800
   9755 C1        -23.4770    2.8850   -8.9170 c3      1626 PE       0.039600
   9756 C2        -24.8670    2.1750   -8.7670 c3      1626 PE       0.039600
   9757 H11       -24.0870    0.2250   -9.6270 hc      1627 PE      -0.019800
   9758 H12       -23.9670    0.2850   -7.8770 hc      1627 PE      -0.019800
   9759 H21       -26.6770    0.3750   -9.3070 hc      1627 PE      -0.019800
   9760 H22       -26.4270    0.2350   -7.5770 hc      1627 PE      -0.019800
   9761 C1        -24.5970    0.5850   -8.7270 c3      1627 PE       0.039600
   9762 C2        -25.9770   -0.0050   -8.5470 c3      1627 PE       0.039600
   9763 H11       -25.7770   -1.7950   -9.5770 hc      1628 PE      -0.019800
   9764 H12       -25.4470   -2.1150   -7.8470 hc      1628 PE      -0.019800
   9765 H21       -27.5870   -3.2350   -8.8370 hc      1628 PE      -0.019800
   9766 H22       -28.3370   -1.7450   -8.9670 hc      1628 PE      -0.019800
   9767 C1        -26.1170   -1.6050   -8.5470 c3      1628 PE       0.039600
   9768 C2        -27.5370   -2.2350   -8.3970 c3      1628 PE       0.039600
   9769 H11       -27.4670   -3.2250   -6.4370 hc      1629 PE      -0.019800
   9770 H12       -27.5270   -1.4550   -6.3570 hc      1629 PE      -0.019800
   9771 H21       -29.8770   -3.5550   -7.0870 hc      1629 PE      -0.019800
   9772 H22       -29.9470   -1.9350   -7.5070 hc      1629 PE      -0.019800
   9773 C1        -27.8970   -2.3250   -6.9170 c3      1629 PE       0.039600
   9774 C2        -29.4570   -2.5950   -6.7870 c3      1629 PE       0.039600
   9775 H11       -30.1870   -1.1150   -5.3670 hc      1630 PE      -0.019800
   9776 H12       -31.1470   -2.6850   -5.3970 hc      1630 PE      -0.019800
   9777 H21       -29.8170   -2.5050   -3.3170 hc      1630 PE      -0.019800
   9778 H22       -28.3070   -2.2750   -4.3070 hc      1630 PE      -0.019800
   9779 C1        -30.1670   -2.2050   -5.4070 c3      1630 PE       0.039600
   9780 C2        -29.2870   -2.7750   -4.2370 c3      1630 PE       0.039600
   9781 H11       -28.3070   -4.5750   -4.9070 hc      1631 PE      -0.019800
   9782 H12       -28.4970   -4.3650   -3.2070 hc      1631 PE      -0.019800
   9783 H21       -30.8070   -5.1050   -4.9670 hc      1631 PE      -0.019800
   9784 H22       -30.9270   -4.8950   -3.2870 hc      1631 PE      -0.019800
   9785 C1        -29.0270   -4.2550   -4.1570 c3      1631 PE       0.039600
   9786 C2        -30.2170   -5.2250   -4.0570 c3      1631 PE       0.039600
   9787 H11       -29.0070   -6.9450   -4.5070 hc      1632 PE      -0.019800
   9788 H12       -29.3170   -6.6650   -2.7870 hc      1632 PE      -0.019800
   9789 H21       -31.5170   -7.4850   -4.6770 hc      1632 PE      -0.019800
   9790 H22       -31.5370   -7.5650   -2.8770 hc      1632 PE      -0.019800
   9791 C1        -29.7670   -6.6150   -3.7870 c3      1632 PE       0.039600
   9792 C2        -30.9170   -7.6750   -3.7770 c3      1632 PE       0.039600
   9793 H11       -29.7470   -9.1650   -4.7070 hc      1633 PE      -0.019800
   9794 H12       -29.6970   -9.2950   -2.8970 hc      1633 PE      -0.019800
   9795 H21       -31.9870  -10.0550   -4.6870 hc      1633 PE      -0.019800
   9796 H22       -32.1870   -9.8950   -2.8870 hc      1633 PE      -0.019800
   9797 C1        -30.3270   -9.1250   -3.7770 c3      1633 PE       0.039600
   9798 C2        -31.5170  -10.1850   -3.7070 c3      1633 PE       0.039600
   9799 H11       -30.1670  -11.7050   -4.1570 hc      1634 PE      -0.019800
   9800 H12       -30.6170  -11.6850   -2.4170 hc      1634 PE      -0.019800
   9801 H21       -32.7170  -12.2850   -4.6170 hc      1634 PE      -0.019800
   9802 H22       -32.8170  -12.6250   -2.9670 hc      1634 PE      -0.019800
   9803 C1        -30.9870  -11.5650   -3.4470 c3      1634 PE       0.039600
   9804 C2        -32.0770  -12.5850   -3.7770 c3      1634 PE       0.039600
   9805 H11       -32.2670  -14.6550   -4.5770 hc      1635 PE      -0.019800
   9806 H12       -30.7070  -13.9150   -4.6270 hc      1635 PE      -0.019800
   9807 H21       -31.9470  -14.6250   -1.9370 hc      1635 PE      -0.019800
   9808 H22       -30.2770  -14.1950   -2.2970 hc      1635 PE      -0.019800
   9809 C1        -31.5770  -14.0550   -3.9770 c3      1635 PE       0.039600
   9810 C2        -31.1470  -14.7350   -2.6870 c3      1635 PE       0.039600
   9811 H11       -31.8170  -16.6150   -3.3170 hc      1636 PE      -0.019800
   9812 H12       -30.1370  -16.3650   -3.6470 hc      1636 PE      -0.019800
   9813 H21       -30.5170  -18.0250   -1.8170 hc      1636 PE      -0.019800
   9814 H22       -31.3870  -16.7650   -0.8670 hc      1636 PE      -0.019800
   9815 C1        -30.8970  -16.2550   -2.8570 c3      1636 PE       0.039600
   9816 C2        -30.5670  -16.9550   -1.5670 c3      1636 PE       0.039600
   9817 H11       -28.6670  -16.1450   -1.7570 hc      1637 PE      -0.019800
   9818 H12       -29.4470  -15.5050   -0.3470 hc      1637 PE      -0.019800
   9819 H21       -28.5170  -18.3050   -0.7870 hc      1637 PE      -0.019800
   9820 H22       -29.2670  -17.7750    0.7430 hc      1637 PE      -0.019800
   9821 C1        -29.3170  -16.4350   -0.9170 c3      1637 PE       0.039600
   9822 C2        -28.6170  -17.4750   -0.0770 c3      1637 PE       0.039600
   9823 H11       -27.3070  -15.8750    0.8930 hc      1638 PE      -0.019800
   9824 H12       -26.8470  -17.5050    1.2630 hc      1638 PE      -0.019800
   9825 H21       -26.3570  -16.0650   -1.4470 hc      1638 PE      -0.019800
   9826 H22       -26.2570  -17.8350   -1.2070 hc      1638 PE      -0.019800
   9827 C1        -27.1970  -16.8650    0.4430 c3      1638 PE       0.039600
   9828 C2        -26.1470  -16.8550   -0.7170 c3      1638 PE       0.039600
   9829 H11       -24.3870  -17.4950    0.3330 hc      1639 PE      -0.019800
   9830 H12       -24.0370  -16.7250   -1.1970 hc      1639 PE      -0.019800
   9831 H21       -23.2470  -15.5650    0.8130 hc      1639 PE      -0.019800
   9832 H22       -24.8570  -15.4750    1.4530 hc      1639 PE      -0.019800
   9833 C1        -24.6670  -16.6450   -0.2970 c3      1639 PE       0.039600
   9834 C2        -24.2870  -15.3550    0.5230 c3      1639 PE       0.039600
   9835 H11       -24.0370  -14.0650   -1.2170 hc      1640 PE      -0.019800
   9836 H12       -25.5570  -13.8050   -0.3470 hc      1640 PE      -0.019800
   9837 H21       -22.8170  -12.9150    0.7530 hc      1640 PE      -0.019800
   9838 H22       -24.2670  -12.8050    1.6830 hc      1640 PE      -0.019800
   9839 C1        -24.4870  -13.9850   -0.2170 c3      1640 PE       0.039600
   9840 C2        -23.9070  -12.7750    0.6530 c3      1640 PE       0.039600
   9841 H11       -23.9670  -11.3550   -1.1270 hc      1641 PE      -0.019800
   9842 H12       -25.3670  -11.3750   -0.1470 hc      1641 PE      -0.019800
   9843 H21       -22.6470  -10.3250    0.7630 hc      1641 PE      -0.019800
   9844 H22       -24.1370  -10.0950    1.6830 hc      1641 PE      -0.019800
   9845 C1        -24.2770  -11.3750   -0.0770 c3      1641 PE       0.039600
   9846 C2        -23.7270  -10.1450    0.6630 c3      1641 PE       0.039600
   9847 H11       -23.2270   -9.1850   -1.1570 hc      1642 PE      -0.019800
   9848 H12       -24.7970   -8.6850   -0.6170 hc      1642 PE      -0.019800
   9849 H21       -22.3370   -8.0550    1.0930 hc      1642 PE      -0.019800
   9850 H22       -23.9770   -7.5650    1.1330 hc      1642 PE      -0.019800
   9851 C1        -23.7970   -8.9350   -0.2570 c3      1642 PE       0.039600
   9852 C2        -23.1570   -7.7350    0.4330 c3      1642 PE       0.039600
   9853 H11       -21.9370   -6.9250   -1.1170 hc      1643 PE      -0.019800
   9854 H12       -23.5870   -6.4650   -1.3570 hc      1643 PE      -0.019800
   9855 H21       -21.5570   -5.2350    0.4730 hc      1643 PE      -0.019800
   9856 H22       -23.1670   -5.1250    1.0530 hc      1643 PE      -0.019800
   9857 C1        -22.8370   -6.6150   -0.5770 c3      1643 PE       0.039600
   9858 C2        -22.5970   -5.2750    0.1230 c3      1643 PE       0.039600
   9859 H11       -22.0170   -4.0950   -1.6470 hc      1644 PE      -0.019800
   9860 H12       -23.6770   -3.7650   -1.0570 hc      1644 PE      -0.019800
   9861 H21       -21.1470   -2.8350    0.2030 hc      1644 PE      -0.019800
   9862 H22       -22.8670   -2.5450    0.7530 hc      1644 PE      -0.019800
   9863 C1        -22.6570   -4.0450   -0.7670 c3      1644 PE       0.039600
   9864 C2        -22.2070   -2.7950   -0.0870 c3      1644 PE       0.039600
   9865 H11       -21.5170   -1.7850   -1.7670 hc      1645 PE      -0.019800
   9866 H12       -23.1870   -1.4450   -1.5970 hc      1645 PE      -0.019800
   9867 H21       -21.0870   -0.2350    0.2830 hc      1645 PE      -0.019800
   9868 H22       -22.8570   -0.1150    0.5230 hc      1645 PE      -0.019800
   9869 C1        -22.2670   -1.5550   -1.0070 c3      1645 PE       0.039600
   9870 C2        -22.0570   -0.2150   -0.2170 c3      1645 PE       0.039600
   9871 H11       -21.0670    1.0150   -1.6470 hc      1646 PE      -0.019800
   9872 H12       -22.8770    1.1850   -1.7270 hc      1646 PE      -0.019800
   9873 H21       -20.7170    2.2850    0.2730 hc      1646 PE      -0.019800
   9874 H22       -22.3770    2.2950    0.8030 hc      1646 PE      -0.019800
   9875 C1        -21.9970    1.0550   -1.0770 c3      1646 PE       0.039600
   9876 C2        -21.7470    2.2950   -0.0970 c3      1646 PE       0.039600
   9877 H11       -21.0370    3.4550   -1.6470 hc      1647 PE      -0.019800
   9878 H12       -22.7370    3.8450   -1.4070 hc      1647 PE      -0.019800
   9879 H21       -20.3270    4.8050    0.2430 hc      1647 PE      -0.019800
   9880 H22       -21.8370    5.0350    0.8830 hc      1647 PE      -0.019800
   9881 C1        -21.7870    3.6650   -0.8770 c3      1647 PE       0.039600
   9882 C2        -21.3670    4.9050   -0.0970 c3      1647 PE       0.039600
   9883 H11       -21.0870    6.0550   -1.8970 hc      1648 PE      -0.019800
   9884 H12       -22.5670    6.4450   -1.3470 hc      1648 PE      -0.019800
   9885 H21       -19.9770    7.5550   -0.2370 hc      1648 PE      -0.019800
   9886 H22       -21.2270    7.2850    0.9330 hc      1648 PE      -0.019800
   9887 C1        -21.5770    6.2350   -0.9270 c3      1648 PE       0.039600
   9888 C2        -21.0570    7.4050   -0.1470 c3      1648 PE       0.039600
   9889 H11       -21.4970    8.9950   -1.6370 hc      1649 PE      -0.019800
   9890 H12       -22.7670    8.7550   -0.5770 hc      1649 PE      -0.019800
   9891 H21       -20.9470   10.9050   -0.3670 hc      1649 PE      -0.019800
   9892 H22       -20.0670    9.5750    0.5030 hc      1649 PE      -0.019800
   9893 C1        -21.6670    8.8050   -0.5770 c3      1649 PE       0.039600
   9894 C2        -21.0370    9.9850    0.2130 c3      1649 PE       0.039600
   9895 H11       -21.7270    9.5250    2.2230 hc      1650 PE      -0.019800
   9896 H12       -21.2370   11.2550    2.1230 hc      1650 PE      -0.019800
   9897 H21       -23.2470   11.5950    0.6530 hc      1650 PE      -0.019800
   9898 H22       -23.7470    9.9750    1.0130 hc      1650 PE      -0.019800
   9899 C1        -21.6770   10.4050    1.5830 c3      1650 PE       0.039600
   9900 C2        -23.1270   10.7950    1.3930 c3      1650 PE       0.039600
   9901 H11       -23.3870   -5.7550    9.4630 hc      1651 PE      -0.019800
   9902 H12       -24.0870   -4.8850    8.1030 hc      1651 PE      -0.019800
   9903 H21       -22.0170   -4.1050    7.3030 hc      1651 PE      -0.019800
   9904 H22       -21.9970   -5.8150    7.3830 hc      1651 PE      -0.019800
   9905 C1        -23.2570   -4.8650    8.8230 c3      1651 PE       0.039600
   9906 C2        -22.0070   -4.9250    8.0330 c3      1651 PE       0.039600
   9907 H11       -20.8870   -4.0750    9.7330 hc      1652 PE      -0.019800
   9908 H12       -20.7670   -5.6950    9.6430 hc      1652 PE      -0.019800
   9909 H21       -19.3470   -4.0550    7.3530 hc      1652 PE      -0.019800
   9910 H22       -19.2670   -5.7550    7.6230 hc      1652 PE      -0.019800
   9911 C1        -20.7670   -4.8450    8.9530 c3      1652 PE       0.039600
   9912 C2        -19.4170   -4.8050    8.1530 c3      1652 PE       0.039600
   9913 H11       -18.4170   -3.7750    9.7630 hc      1653 PE      -0.019800
   9914 H12       -18.2270   -5.5250    9.7930 hc      1653 PE      -0.019800
   9915 H21       -16.9570   -3.9850    7.4930 hc      1653 PE      -0.019800
   9916 H22       -16.6470   -5.6050    7.9630 hc      1653 PE      -0.019800
   9917 C1        -18.2670   -4.6550    9.1230 c3      1653 PE       0.039600
   9918 C2        -16.8770   -4.6250    8.3930 c3      1653 PE       0.039600
   9919 H11       -15.9270   -3.0050    9.4430 hc      1654 PE      -0.019800
   9920 H12       -15.6270   -4.6950   10.0930 hc      1654 PE      -0.019800
   9921 H21       -14.6070   -3.1950    7.6530 hc      1654 PE      -0.019800
   9922 H22       -14.3270   -4.9150    7.7530 hc      1654 PE      -0.019800
   9923 C1        -15.7070   -4.0450    9.2030 c3      1654 PE       0.039600
   9924 C2        -14.4270   -4.0050    8.3630 c3      1654 PE       0.039600
   9925 H11       -13.3170   -3.0350    9.9330 hc      1655 PE      -0.019800
   9926 H12       -12.8370   -4.6950    9.7530 hc      1655 PE      -0.019800
   9927 H21       -12.4470   -2.7550    7.3830 hc      1655 PE      -0.019800
   9928 H22       -11.9070   -4.3450    7.4230 hc      1655 PE      -0.019800
   9929 C1        -13.1270   -3.8050    9.1830 c3      1655 PE       0.039600
   9930 C2        -12.0170   -3.4750    8.0830 c3      1655 PE       0.039600
   9931 H11       -10.8770   -2.2550    9.4430 hc      1656 PE      -0.019800
   9932 H12       -10.3270   -3.8950    9.2030 hc      1656 PE      -0.019800
   9933 H21        -9.8470   -1.6450    7.1430 hc      1656 PE      -0.019800
   9934 H22        -9.5870   -3.3550    6.7930 hc      1656 PE      -0.019800
   9935 C1        -10.6870   -3.0050    8.6630 c3      1656 PE       0.039600
   9936 C2         -9.5970   -2.6150    7.6030 c3      1656 PE       0.039600
   9937 H11        -8.0970   -1.8650    9.0230 hc      1657 PE      -0.019800
   9938 H12        -7.9270   -3.4950    8.4730 hc      1657 PE      -0.019800
   9939 H21        -6.2370   -1.5050    7.6130 hc      1657 PE      -0.019800
   9940 H22        -7.5370   -1.2950    6.4630 hc      1657 PE      -0.019800
   9941 C1         -8.1270   -2.4750    8.1030 c3      1657 PE       0.039600
   9942 C2         -7.0570   -2.0350    7.1130 c3      1657 PE       0.039600
   9943 H11        -5.6870   -3.6250    6.9430 hc      1658 PE      -0.019800
   9944 H12        -7.1070   -4.0350    6.0530 hc      1658 PE      -0.019800
   9945 H21        -4.8570   -2.1150    5.1830 hc      1658 PE      -0.019800
   9946 H22        -6.4170   -2.0650    4.3730 hc      1658 PE      -0.019800
   9947 C1         -6.4570   -3.1850    6.3030 c3      1658 PE       0.039600
   9948 C2         -5.7670   -2.6950    4.9830 c3      1658 PE       0.039600
   9949 H11        -4.6870   -4.5550    4.6030 hc      1659 PE      -0.019800
   9950 H12        -6.3170   -4.5250    3.9730 hc      1659 PE      -0.019800
   9951 H21        -4.3270   -2.7050    2.7330 hc      1659 PE      -0.019800
   9952 H22        -5.8770   -3.1150    2.0530 hc      1659 PE      -0.019800
   9953 C1         -5.4170   -3.9150    4.0830 c3      1659 PE       0.039600
   9954 C2         -5.0070   -3.5450    2.5730 c3      1659 PE       0.039600
   9955 H11        -3.4770   -5.1350    2.3730 hc      1660 PE      -0.019800
   9956 H12        -5.0270   -5.7050    1.9630 hc      1660 PE      -0.019800
   9957 H21        -3.4470   -3.7250    0.2030 hc      1660 PE      -0.019800
   9958 H22        -5.1070   -4.1750   -0.0470 hc      1660 PE      -0.019800
   9959 C1         -4.4070   -4.7950    1.8830 c3      1660 PE       0.039600
   9960 C2         -4.1470   -4.5550    0.3330 c3      1660 PE       0.039600
   9961 H11        -4.5670   -6.4950   -0.5170 hc      1661 PE      -0.019800
   9962 H12        -3.6270   -5.4250   -1.4870 hc      1661 PE      -0.019800
   9963 H21        -2.3870   -7.5150   -0.5070 hc      1661 PE      -0.019800
   9964 H22        -2.5770   -6.8950    1.1030 hc      1661 PE      -0.019800
   9965 C1         -3.7370   -5.7850   -0.4570 c3      1661 PE       0.039600
   9966 C2         -2.4670   -6.5750    0.0630 c3      1661 PE       0.039600
   9967 H11        -1.1970   -5.2450   -1.1570 hc      1662 PE      -0.019800
   9968 H12        -1.1170   -4.8550    0.5030 hc      1662 PE      -0.019800
   9969 H21         0.0830   -7.4250   -0.6570 hc      1662 PE      -0.019800
   9970 H22         0.2430   -6.9150    1.0130 hc      1662 PE      -0.019800
   9971 C1         -1.1370   -5.7150   -0.1670 c3      1662 PE       0.039600
   9972 C2          0.1530   -6.5450   -0.0070 c3      1662 PE       0.039600
   9973 H11         1.6130   -5.6050   -1.3670 hc      1663 PE      -0.019800
   9974 H12         1.4030   -4.8550    0.2730 hc      1663 PE      -0.019800
   9975 H21         2.9530   -7.2850   -0.6070 hc      1663 PE      -0.019800
   9976 H22         2.8530   -6.7250    1.0930 hc      1663 PE      -0.019800
   9977 C1          1.4830   -5.7850   -0.2970 c3      1663 PE       0.039600
   9978 C2          2.8230   -6.4150    0.0530 c3      1663 PE       0.039600
   9979 H11         4.0030   -4.8750   -1.1170 hc      1664 PE      -0.019800
   9980 H12         3.9030   -4.5750    0.6030 hc      1664 PE      -0.019800
   9981 H21         5.5230   -6.6450   -0.8870 hc      1664 PE      -0.019800
   9982 H22         5.3830   -6.6550    0.8830 hc      1664 PE      -0.019800
   9983 C1          4.0230   -5.3750   -0.1370 c3      1664 PE       0.039600
   9984 C2          5.3530   -6.0150   -0.0070 c3      1664 PE       0.039600
   9985 H11         6.6230   -4.2050   -0.6370 hc      1665 PE      -0.019800
   9986 H12         6.5430   -4.4450    1.0830 hc      1665 PE      -0.019800
   9987 H21         7.9530   -6.4250   -0.8470 hc      1665 PE      -0.019800
   9988 H22         7.9930   -6.2950    0.9430 hc      1665 PE      -0.019800
   9989 C1          6.5930   -4.9850    0.1330 c3      1665 PE       0.039600
   9990 C2          7.9230   -5.7350    0.0030 c3      1665 PE       0.039600
   9991 H11         9.0730   -4.0850   -0.8970 hc      1666 PE      -0.019800
   9992 H12         8.9930   -3.9850    0.7830 hc      1666 PE      -0.019800
   9993 H21        10.6430   -6.1550   -0.7870 hc      1666 PE      -0.019800
   9994 H22        10.5030   -5.9750    1.0230 hc      1666 PE      -0.019800
   9995 C1          9.0730   -4.7350   -0.0170 c3      1666 PE       0.039600
   9996 C2         10.4330   -5.4650    0.0430 c3      1666 PE       0.039600
   9997 H11        11.4530   -3.7550   -0.8570 hc      1667 PE      -0.019800
   9998 H12        11.3630   -3.6450    0.9430 hc      1667 PE      -0.019800
   9999 H21        13.0430   -5.6750   -0.4670 hc      1667 PE      -0.019800
  10000 H22        13.1330   -5.1050    1.2130 hc      1667 PE      -0.019800
  10001 C1         11.4830   -4.3150    0.0830 c3      1667 PE       0.039600
  10002 C2         12.9330   -4.7950    0.1830 c3      1667 PE       0.039600
  10003 H11        13.8830   -3.4050   -1.2770 hc      1668 PE      -0.019800
  10004 H12        13.7630   -2.7550    0.2630 hc      1668 PE      -0.019800
  10005 H21        15.5830   -5.0450   -0.6170 hc      1668 PE      -0.019800
  10006 H22        15.6530   -4.5350    0.9330 hc      1668 PE      -0.019800
  10007 C1         13.9930   -3.7050   -0.2270 c3      1668 PE       0.039600
  10008 C2         15.4130   -4.1250   -0.0470 c3      1668 PE       0.039600
  10009 H11        16.3730   -2.7450   -1.3070 hc      1669 PE      -0.019800
  10010 H12        16.2730   -2.1150    0.3530 hc      1669 PE      -0.019800
  10011 H21        18.1730   -4.2350   -0.7070 hc      1669 PE      -0.019800
  10012 H22        17.9530   -3.8350    0.9730 hc      1669 PE      -0.019800
  10013 C1         16.5030   -3.0050   -0.2570 c3      1669 PE       0.039600
  10014 C2         17.9030   -3.4050   -0.0370 c3      1669 PE       0.039600
  10015 H11        18.9030   -1.8250   -1.2170 hc      1670 PE      -0.019800
  10016 H12        18.7930   -1.4850    0.5430 hc      1670 PE      -0.019800
  10017 H21        20.4630   -3.5450   -0.8470 hc      1670 PE      -0.019800
  10018 H22        20.2730   -3.3750    0.9030 hc      1670 PE      -0.019800
  10019 C1         18.9430   -2.2650   -0.2170 c3      1670 PE       0.039600
  10020 C2         20.3130   -2.8150   -0.0370 c3      1670 PE       0.039600
  10021 H11        21.3430   -1.3850   -1.0470 hc      1671 PE      -0.019800
  10022 H12        21.2930   -1.0050    0.7430 hc      1671 PE      -0.019800
  10023 H21        23.0030   -2.9950   -0.6970 hc      1671 PE      -0.019800
  10024 H22        22.7830   -2.8750    1.0530 hc      1671 PE      -0.019800
  10025 C1         21.4230   -1.7750   -0.0270 c3      1671 PE       0.039600
  10026 C2         22.8330   -2.2950    0.1330 c3      1671 PE       0.039600
  10027 H11        23.7230   -0.6350   -0.7370 hc      1672 PE      -0.019800
  10028 H12        23.7130   -0.4550    1.0130 hc      1672 PE      -0.019800
  10029 H21        25.5430   -2.4450   -0.5870 hc      1672 PE      -0.019800
  10030 H22        25.4530   -2.3850    1.1630 hc      1672 PE      -0.019800
  10031 C1         23.8730   -1.1850    0.2030 c3      1672 PE       0.039600
  10032 C2         25.3830   -1.7650    0.2630 c3      1672 PE       0.039600
  10033 H11        26.1730   -0.0350   -0.6970 hc      1673 PE      -0.019800
  10034 H12        26.0730    0.0950    1.0930 hc      1673 PE      -0.019800
  10035 H21        27.9930   -1.5050   -0.7970 hc      1673 PE      -0.019800
  10036 H22        27.9930   -1.8050    0.9730 hc      1673 PE      -0.019800
  10037 C1         26.3230   -0.5650    0.2530 c3      1673 PE       0.039600
  10038 C2         27.7630   -1.0850    0.1830 c3      1673 PE       0.039600
  10039 H11        28.6030    0.7950   -0.7370 hc      1674 PE      -0.019800
  10040 H12        28.5230    0.8550    1.0330 hc      1674 PE      -0.019800
  10041 H21        30.4730   -0.8950   -0.3670 hc      1674 PE      -0.019800
  10042 H22        30.3630   -0.4250    1.3330 hc      1674 PE      -0.019800
  10043 C1         28.7530    0.2050    0.1830 c3      1674 PE       0.039600
  10044 C2         30.2430   -0.0550    0.3030 c3      1674 PE       0.039600
  10045 H11        31.2430    1.5550   -0.9170 hc      1675 PE      -0.019800
  10046 H12        30.9530    2.0650    0.6230 hc      1675 PE      -0.019800
  10047 H21        32.8630   -0.0550   -0.2470 hc      1675 PE      -0.019800
  10048 H22        32.7930    0.4150    1.4730 hc      1675 PE      -0.019800
  10049 C1         31.2630    1.1550    0.1030 c3      1675 PE       0.039600
  10050 C2         32.7030    0.7850    0.4430 c3      1675 PE       0.039600
  10051 H11        33.4330    2.4250   -0.8270 hc      1676 PE      -0.019800
  10052 H12        33.3930    2.7450    0.8330 hc      1676 PE      -0.019800
  10053 H21        35.2730    0.6850   -0.4570 hc      1676 PE      -0.019800
  10054 H22        35.4030    1.1450    1.1630 hc      1676 PE      -0.019800
  10055 C1         33.7330    1.9750    0.1230 c3      1676 PE       0.039600
  10056 C2         35.1930    1.5750    0.1830 c3      1676 PE       0.039600
  10057 H11        35.8330    3.2050   -1.0570 hc      1677 PE      -0.019800
  10058 H12        35.7830    3.5450    0.5730 hc      1677 PE      -0.019800
  10059 H21        37.8430    1.5350   -0.7170 hc      1677 PE      -0.019800
  10060 H22        37.7930    1.9550    1.0430 hc      1677 PE      -0.019800
  10061 C1         36.1130    2.7550   -0.1070 c3      1677 PE       0.039600
  10062 C2         37.5830    2.3050    0.0230 c3      1677 PE       0.039600
  10063 H11        38.1930    3.9650   -1.0870 hc      1678 PE      -0.019800
  10064 H12        38.2030    4.2350    0.6430 hc      1678 PE      -0.019800
  10065 H21        40.2830    2.4650   -0.8270 hc      1678 PE      -0.019800
  10066 H22        40.1530    2.4550    0.9430 hc      1678 PE      -0.019800
  10067 C1         38.4430    3.4950   -0.1370 c3      1678 PE       0.039600
  10068 C2         40.0030    3.0750    0.0430 c3      1678 PE       0.039600
  10069 H11       -39.3170    5.0150   -0.8470 hc      1679 PE      -0.019800
  10070 H12       -39.3370    5.0350    0.8930 hc      1679 PE      -0.019800
  10071 H21       -37.4970    3.2850   -0.8170 hc      1679 PE      -0.019800
  10072 H22       -37.1470    3.5450    0.7730 hc      1679 PE      -0.019800
  10073 C1        -39.0770    4.4050    0.0330 c3      1679 PE       0.039600
  10074 C2        -37.5970    4.0850   -0.0670 c3      1679 PE       0.039600
  10075 H11       -37.3270    6.0350   -0.9570 hc      1680 PE      -0.019800
  10076 H12       -36.7370    5.8650    0.7130 hc      1680 PE      -0.019800
  10077 H21       -34.9870    6.1850   -1.2770 hc      1680 PE      -0.019800
  10078 H22       -34.6070    4.9550   -0.0370 hc      1680 PE      -0.019800
  10079 C1        -36.7670    5.3850   -0.2670 c3      1680 PE       0.039600
  10080 C2        -35.3070    5.2450   -0.8370 c3      1680 PE       0.039600
  10081 H11       -28.8870   12.2750    1.8830 hc      1681 PE      -0.019800
  10082 H12       -29.1070   13.4550    3.1430 hc      1681 PE      -0.019800
  10083 H21       -26.5670   12.1850    1.9630 hc      1681 PE      -0.019800
  10084 H22       -27.0170   11.8750    3.6130 hc      1681 PE      -0.019800
  10085 C1        -28.3870   13.1250    2.3830 c3      1681 PE       0.039600
  10086 C2        -27.0370   12.6550    2.8330 c3      1681 PE       0.039600
  10087 H11       -26.0870   14.5050    2.4930 hc      1682 PE      -0.019800
  10088 H12       -26.6570   14.4450    4.1430 hc      1682 PE      -0.019800
  10089 H21       -24.4070   12.8250    3.0330 hc      1682 PE      -0.019800
  10090 H22       -24.7270   12.7550    4.6530 hc      1682 PE      -0.019800
  10091 C1        -26.1670   13.8450    3.3630 c3      1682 PE       0.039600
  10092 C2        -24.7670   13.4850    3.8330 c3      1682 PE       0.039600
  10093 H11       -23.9870   15.3550    3.1730 hc      1683 PE      -0.019800
  10094 H12       -24.1270   15.3350    4.9830 hc      1683 PE      -0.019800
  10095 H21       -22.0570   13.7950    3.3730 hc      1683 PE      -0.019800
  10096 H22       -22.0370   13.9650    5.1430 hc      1683 PE      -0.019800
  10097 C1        -23.8470   14.7650    4.0830 c3      1683 PE       0.039600
  10098 C2        -22.3470   14.4450    4.2030 c3      1683 PE       0.039600
  10099 H11       -21.6570   16.1450    3.0730 hc      1684 PE      -0.019800
  10100 H12       -22.1470   16.4950    4.7730 hc      1684 PE      -0.019800
  10101 H21       -19.8170   14.6550    3.9430 hc      1684 PE      -0.019800
  10102 H22       -20.0670   15.2150    5.5830 hc      1684 PE      -0.019800
  10103 C1        -21.6270   15.7950    4.1130 c3      1684 PE       0.039600
  10104 C2        -20.1470   15.5250    4.5330 c3      1684 PE       0.039600
  10105 H11       -19.3770   17.0650    3.3030 hc      1685 PE      -0.019800
  10106 H12       -19.2770   17.3450    5.1030 hc      1685 PE      -0.019800
  10107 H21       -17.5470   15.5050    3.4030 hc      1685 PE      -0.019800
  10108 H22       -17.5970   15.3350    5.0530 hc      1685 PE      -0.019800
  10109 C1        -19.1870   16.6150    4.2930 c3      1685 PE       0.039600
  10110 C2        -17.7670   16.1050    4.2830 c3      1685 PE       0.039600
  10111 H11       -16.4670   17.6050    3.4230 hc      1686 PE      -0.019800
  10112 H12       -16.9670   17.8250    5.1430 hc      1686 PE      -0.019800
  10113 H21       -15.0370   15.7050    4.0430 hc      1686 PE      -0.019800
  10114 H22       -15.4370   16.0150    5.7630 hc      1686 PE      -0.019800
  10115 C1        -16.6170   17.1050    4.3930 c3      1686 PE       0.039600
  10116 C2        -15.2370   16.4850    4.7930 c3      1686 PE       0.039600
  10117 H11       -14.1470   18.1650    4.0030 hc      1687 PE      -0.019800
  10118 H12       -14.1670   18.1250    5.8330 hc      1687 PE      -0.019800
  10119 H21       -12.5670   16.1650    4.0430 hc      1687 PE      -0.019800
  10120 H22       -12.5170   16.2950    5.6930 hc      1687 PE      -0.019800
  10121 C1        -14.0870   17.5450    4.9030 c3      1687 PE       0.039600
  10122 C2        -12.6970   16.9250    4.8230 c3      1687 PE       0.039600
  10123 H11       -11.8970   18.5350    3.7330 hc      1688 PE      -0.019800
  10124 H12       -11.3870   18.5750    5.4730 hc      1688 PE      -0.019800
  10125 H21       -10.3270   16.8250    3.1030 hc      1688 PE      -0.019800
  10126 H22        -9.9770   16.2750    4.7130 hc      1688 PE      -0.019800
  10127 C1        -11.5370   17.9450    4.5830 c3      1688 PE       0.039600
  10128 C2        -10.1670   17.1850    4.1330 c3      1688 PE       0.039600
  10129 H11        -8.8970   18.7150    3.1230 hc      1689 PE      -0.019800
  10130 H12        -9.2070   19.0850    4.7230 hc      1689 PE      -0.019800
  10131 H21        -7.4970   16.7050    3.6830 hc      1689 PE      -0.019800
  10132 H22        -7.5470   17.1750    5.4030 hc      1689 PE      -0.019800
  10133 C1         -9.0270   18.2050    4.0830 c3      1689 PE       0.039600
  10134 C2         -7.6370   17.5450    4.3730 c3      1689 PE       0.039600
  10135 H11        -6.4270   18.7550    3.1830 hc      1690 PE      -0.019800
  10136 H12        -6.5970   19.4250    4.7930 hc      1690 PE      -0.019800
  10137 H21        -4.8170   17.1050    3.8330 hc      1690 PE      -0.019800
  10138 H22        -4.9570   17.6150    5.6030 hc      1690 PE      -0.019800
  10139 C1         -6.3970   18.4950    4.2430 c3      1690 PE       0.039600
  10140 C2         -4.9970   17.9150    4.5530 c3      1690 PE       0.039600
  10141 H11        -3.7270   19.2250    3.3330 hc      1691 PE      -0.019800
  10142 H12        -3.9070   19.7250    5.0630 hc      1691 PE      -0.019800
  10143 H21        -2.5570   17.1550    3.9730 hc      1691 PE      -0.019800
  10144 H22        -2.4570   17.6250    5.6230 hc      1691 PE      -0.019800
  10145 C1         -3.7970   18.8750    4.3730 c3      1691 PE       0.039600
  10146 C2         -2.4870   18.0450    4.6130 c3      1691 PE       0.039600
  10147 H11        -1.4370   19.1750    3.2330 hc      1692 PE      -0.019800
  10148 H12        -1.4770   19.9150    4.8030 hc      1692 PE      -0.019800
  10149 H21         0.1330   17.5750    3.7130 hc      1692 PE      -0.019800
  10150 H22         0.2030   17.8150    5.4630 hc      1692 PE      -0.019800
  10151 C1         -1.2670   18.9650    4.2930 c3      1692 PE       0.039600
  10152 C2          0.1430   18.3350    4.4930 c3      1692 PE       0.039600
  10153 H11         1.1830   19.9050    3.4330 hc      1693 PE      -0.019800
  10154 H12         1.3130   20.0750    5.0630 hc      1693 PE      -0.019800
  10155 H21         2.7230   17.6750    3.8930 hc      1693 PE      -0.019800
  10156 H22         2.7530   18.0650    5.5630 hc      1693 PE      -0.019800
  10157 C1          1.3530   19.2750    4.3130 c3      1693 PE       0.039600
  10158 C2          2.6730   18.5250    4.5730 c3      1693 PE       0.039600
  10159 H11         3.7830   20.0350    3.3930 hc      1694 PE      -0.019800
  10160 H12         3.9830   20.4050    5.0330 hc      1694 PE      -0.019800
  10161 H21         6.1130   19.4850    4.3430 hc      1694 PE      -0.019800
  10162 H22         5.4230   18.1750    3.4530 hc      1694 PE      -0.019800
  10163 C1          3.8830   19.5450    4.3630 c3      1694 PE       0.039600
  10164 C2          5.2930   18.7650    4.3730 c3      1694 PE       0.039600
  10165 H11         5.6030   18.7050    6.5030 hc      1695 PE      -0.019800
  10166 H12         4.8030   17.1850    5.8730 hc      1695 PE      -0.019800
  10167 H21         7.1930   17.2150    6.8430 hc      1695 PE      -0.019800
  10168 H22         7.6830   17.7850    5.2430 hc      1695 PE      -0.019800
  10169 C1          5.5830   17.9350    5.7130 c3      1695 PE       0.039600
  10170 C2          6.9030   17.2250    5.7830 c3      1695 PE       0.039600
  10171 H11         6.4430   16.0250    4.0530 hc      1696 PE      -0.019800
  10172 H12         7.8630   15.4550    4.9530 hc      1696 PE      -0.019800
  10173 H21         5.0730   15.1850    6.1530 hc      1696 PE      -0.019800
  10174 H22         6.5330   14.7050    6.8630 hc      1696 PE      -0.019800
  10175 C1          6.8330   15.8250    5.0630 c3      1696 PE       0.039600
  10176 C2          6.0630   14.7950    5.8730 c3      1696 PE       0.039600
  10177 H11         6.8930   12.9450    5.0830 hc      1697 PE      -0.019800
  10178 H12         5.4230   12.7050    5.9530 hc      1697 PE      -0.019800
  10179 H21         5.2030   12.2850    3.6130 hc      1697 PE      -0.019800
  10180 H22         5.6830   13.8850    3.2130 hc      1697 PE      -0.019800
  10181 C1          5.8930   13.3850    5.2430 c3      1697 PE       0.039600
  10182 C2          5.1030   13.3150    3.9530 c3      1697 PE       0.039600
  10183 H11         3.1930   12.6850    4.4630 hc      1698 PE      -0.019800
  10184 H12         3.4430   14.4550    4.7530 hc      1698 PE      -0.019800
  10185 H21         2.6930   12.9050    2.2430 hc      1698 PE      -0.019800
  10186 H22         3.5430   14.3850    2.0830 hc      1698 PE      -0.019800
  10187 C1          3.6230   13.6150    4.0730 c3      1698 PE       0.039600
  10188 C2          2.8530   13.8550    2.7530 c3      1698 PE       0.039600
  10189 H11         1.5630   15.2150    3.9230 hc      1699 PE      -0.019800
  10190 H12         1.4030   15.5750    2.2530 hc      1699 PE      -0.019800
  10191 H21         0.5030   13.1550    3.7630 hc      1699 PE      -0.019800
  10192 H22         0.3230   13.3150    2.0130 hc      1699 PE      -0.019800
  10193 C1          1.5230   14.7250    2.9430 c3      1699 PE       0.039600
  10194 C2          0.3130   13.8750    2.9530 c3      1699 PE       0.039600
  10195 H11        -0.7870   14.9850    4.3330 hc      1700 PE      -0.019800
  10196 H12        -1.1670   15.4550    2.6730 hc      1700 PE      -0.019800
  10197 H21        -1.8570   12.8250    4.1130 hc      1700 PE      -0.019800
  10198 H22        -2.3570   13.0450    2.4130 hc      1700 PE      -0.019800
  10199 C1         -0.9970   14.5950    3.3330 c3      1700 PE       0.039600
  10200 C2         -2.1570   13.5650    3.3630 c3      1700 PE       0.039600
  10201 H11        -3.2670   14.5850    4.9030 hc      1701 PE      -0.019800
  10202 H12        -3.6670   14.9850    3.2330 hc      1701 PE      -0.019800
  10203 H21        -4.3070   12.3450    4.5730 hc      1701 PE      -0.019800
  10204 H22        -4.5570   12.7150    2.9330 hc      1701 PE      -0.019800
  10205 C1         -3.4270   14.1550    3.9130 c3      1701 PE       0.039600
  10206 C2         -4.5570   13.1950    3.9230 c3      1701 PE       0.039600
  10207 H11        -6.0470   14.0650    5.3430 hc      1702 PE      -0.019800
  10208 H12        -6.0170   14.7350    3.8130 hc      1702 PE      -0.019800
  10209 H21        -7.0470   11.7850    4.2130 hc      1702 PE      -0.019800
  10210 H22        -7.0670   12.6250    2.7230 hc      1702 PE      -0.019800
  10211 C1         -5.9670   13.7550    4.2930 c3      1702 PE       0.039600
  10212 C2         -7.0970   12.7950    3.8030 c3      1702 PE       0.039600
  10213 H11        -8.5670   13.3850    5.1530 hc      1703 PE      -0.019800
  10214 H12        -8.5770   14.3450    3.6230 hc      1703 PE      -0.019800
  10215 H21        -9.6970   11.6850    4.3530 hc      1703 PE      -0.019800
  10216 H22        -9.4870   11.9150    2.5730 hc      1703 PE      -0.019800
  10217 C1         -8.4870   13.3450    4.0530 c3      1703 PE       0.039600
  10218 C2         -9.6370   12.4150    3.5330 c3      1703 PE       0.039600
  10219 H11       -11.7470   12.1650    3.5430 hc      1704 PE      -0.019800
  10220 H12       -11.0770   13.7450    4.1930 hc      1704 PE      -0.019800
  10221 H21       -10.9170   13.3350    1.1730 hc      1704 PE      -0.019800
  10222 H22       -10.6370   14.7250    2.1130 hc      1704 PE      -0.019800
  10223 C1        -11.0270   12.9850    3.4130 c3      1704 PE       0.039600
  10224 C2        -11.2670   13.8250    2.0930 c3      1704 PE       0.039600
  10225 H11       -13.2470   13.3550    1.3330 hc      1705 PE      -0.019800
  10226 H12       -13.3470   14.1950    2.8230 hc      1705 PE      -0.019800
  10227 H21       -12.4170   15.4250    0.2830 hc      1705 PE      -0.019800
  10228 H22       -12.6170   16.3250    1.8630 hc      1705 PE      -0.019800
  10229 C1        -12.7570   14.1450    1.9030 c3      1705 PE       0.039600
  10230 C2        -12.9570   15.4950    1.2330 c3      1705 PE       0.039600
  10231 H11       -14.8270   15.0450    0.2630 hc      1706 PE      -0.019800
  10232 H12       -14.9870   15.8350    1.7830 hc      1706 PE      -0.019800
  10233 H21       -13.9870   17.4050   -0.5670 hc      1706 PE      -0.019800
  10234 H22       -14.4570   18.0650    1.0530 hc      1706 PE      -0.019800
  10235 C1        -14.4370   15.8850    0.8330 c3      1706 PE       0.039600
  10236 C2        -14.6670   17.3050    0.2830 c3      1706 PE       0.039600
  10237 H11       -16.4670   16.6350   -0.7470 hc      1707 PE      -0.019800
  10238 H12       -16.7670   17.2350    0.8830 hc      1707 PE      -0.019800
  10239 H21       -16.1270   18.9150   -1.7370 hc      1707 PE      -0.019800
  10240 H22       -16.1370   19.6150   -0.0670 hc      1707 PE      -0.019800
  10241 C1        -16.1870   17.4150   -0.0270 c3      1707 PE       0.039600
  10242 C2        -16.5170   18.8150   -0.7070 c3      1707 PE       0.039600
  10243 H11       -18.5570   18.1850   -1.1870 hc      1708 PE      -0.019800
  10244 H12       -18.3570   18.7850    0.3430 hc      1708 PE      -0.019800
  10245 H21       -17.9570   21.2550   -0.7470 hc      1708 PE      -0.019800
  10246 H22       -19.5070   20.6650   -0.6970 hc      1708 PE      -0.019800
  10247 C1        -18.0470   19.0150   -0.6770 c3      1708 PE       0.039600
  10248 C2        -18.5470   20.4250   -1.1670 c3      1708 PE       0.039600
  10249 H11       -17.7070   20.5850   -3.1770 hc      1709 PE      -0.019800
  10250 H12       -19.3770   19.9350   -3.0570 hc      1709 PE      -0.019800
  10251 H21       -18.7070   22.8250   -2.7670 hc      1709 PE      -0.019800
  10252 H22       -20.3170   22.1250   -2.8770 hc      1709 PE      -0.019800
  10253 C1        -18.6770   20.7050   -2.6870 c3      1709 PE       0.039600
  10254 C2        -19.2870   22.0150   -3.2370 c3      1709 PE       0.039600
  10255 H11       -18.2070   22.2750   -5.1370 hc      1710 PE      -0.019800
  10256 H12       -19.4370   21.0550   -5.1770 hc      1710 PE      -0.019800
  10257 H21       -21.0970   22.6750   -5.3870 hc      1710 PE      -0.019800
  10258 H22       -20.1270   24.1050   -4.8970 hc      1710 PE      -0.019800
  10259 C1        -19.2070   22.0450   -4.7570 c3      1710 PE       0.039600
  10260 C2        -20.0970   23.1250   -5.3770 c3      1710 PE       0.039600
  10261 H11       -30.8970  -13.3050    2.1030 hc      1711 PE      -0.019800
  10262 H12       -29.2270  -13.3950    2.5030 hc      1711 PE      -0.019800
  10263 H21       -30.4370  -12.5050   -0.0770 hc      1711 PE      -0.019800
  10264 H22       -28.8870  -13.2150   -0.2170 hc      1711 PE      -0.019800
  10265 C1        -29.9270  -13.5950    1.6830 c3      1711 PE       0.039600
  10266 C2        -29.5470  -12.7550    0.5230 c3      1711 PE       0.039600
  10267 H11       -29.1470  -11.1550    1.9230 hc      1712 PE      -0.019800
  10268 H12       -27.6770  -12.0550    1.3730 hc      1712 PE      -0.019800
  10269 H21       -29.3970   -9.9450   -0.0970 hc      1712 PE      -0.019800
  10270 H22       -27.9270  -10.8050   -0.7970 hc      1712 PE      -0.019800
  10271 C1        -28.6270  -11.6050    1.0630 c3      1712 PE       0.039600
  10272 C2        -28.4070  -10.3850    0.0930 c3      1712 PE       0.039600
  10273 H11       -27.8770   -9.2150    1.8730 hc      1713 PE      -0.019800
  10274 H12       -26.5970   -9.4450    0.7330 hc      1713 PE      -0.019800
  10275 H21       -28.8870   -7.6650   -0.2370 hc      1713 PE      -0.019800
  10276 H22       -27.2470   -7.9550   -0.9170 hc      1713 PE      -0.019800
  10277 C1        -27.6670   -9.2150    0.8030 c3      1713 PE       0.039600
  10278 C2        -27.8370   -7.8850    0.0030 c3      1713 PE       0.039600
  10279 H11       -27.7370   -6.4750    1.7230 hc      1714 PE      -0.019800
  10280 H12       -26.1470   -6.9050    0.9730 hc      1714 PE      -0.019800
  10281 H21       -28.4170   -5.2050   -0.1170 hc      1714 PE      -0.019800
  10282 H22       -26.9070   -5.5950   -1.0670 hc      1714 PE      -0.019800
  10283 C1        -27.2070   -6.6750    0.7930 c3      1714 PE       0.039600
  10284 C2        -27.3370   -5.4150   -0.0770 c3      1714 PE       0.039600
  10285 H11       -27.1370   -3.9950    1.4130 hc      1715 PE      -0.019800
  10286 H12       -25.5870   -4.3350    0.7930 hc      1715 PE      -0.019800
  10287 H21       -27.8570   -2.8550   -0.8670 hc      1715 PE      -0.019800
  10288 H22       -26.3570   -2.8350   -1.3870 hc      1715 PE      -0.019800
  10289 C1        -26.6170   -4.1650    0.4630 c3      1715 PE       0.039600
  10290 C2        -26.8570   -2.8450   -0.4070 c3      1715 PE       0.039600
  10291 H11       -26.9070   -1.6150    1.3130 hc      1716 PE      -0.019800
  10292 H12       -25.4170   -1.4750    0.5530 hc      1716 PE      -0.019800
  10293 H21       -28.1070   -0.4050   -0.6470 hc      1716 PE      -0.019800
  10294 H22       -26.6870   -0.3550   -1.4870 hc      1716 PE      -0.019800
  10295 C1        -26.4870   -1.5550    0.3030 c3      1716 PE       0.039600
  10296 C2        -27.0370   -0.3550   -0.4470 c3      1716 PE       0.039600
  10297 H11       -27.5670    1.7650   -0.1570 hc      1717 PE      -0.019800
  10298 H12       -27.1670    0.8550    1.3130 hc      1717 PE      -0.019800
  10299 H21       -25.1170    1.4650   -0.8470 hc      1717 PE      -0.019800
  10300 H22       -24.7870    1.1150    0.9230 hc      1717 PE      -0.019800
  10301 C1        -26.9070    0.9950    0.2630 c3      1717 PE       0.039600
  10302 C2        -25.4970    1.5250    0.1830 c3      1717 PE       0.039600
  10303 H11       -26.1570    3.3750    1.1830 hc      1718 PE      -0.019800
  10304 H12       -24.4370    3.3450    0.7530 hc      1718 PE      -0.019800
  10305 H21       -26.7370    3.4750   -1.1670 hc      1718 PE      -0.019800
  10306 H22       -25.0670    3.5350   -1.7270 hc      1718 PE      -0.019800
  10307 C1        -25.4470    3.0950    0.4030 c3      1718 PE       0.039600
  10308 C2        -25.7370    3.8350   -0.9070 c3      1718 PE       0.039600
  10309 H11       -26.4070    5.5550    0.2130 hc      1719 PE      -0.019800
  10310 H12       -24.6970    5.5750   -0.2770 hc      1719 PE      -0.019800
  10311 H21       -27.0970    5.9250   -2.1170 hc      1719 PE      -0.019800
  10312 H22       -25.3470    5.9150   -2.6170 hc      1719 PE      -0.019800
  10313 C1        -25.7070    5.3450   -0.6070 c3      1719 PE       0.039600
  10314 C2        -26.0670    6.1850   -1.8370 c3      1719 PE       0.039600
  10315 H11       -26.4570    7.9450   -0.6470 hc      1720 PE      -0.019800
  10316 H12       -24.8170    7.8250   -1.3670 hc      1720 PE      -0.019800
  10317 H21       -27.4670    8.1650   -2.9870 hc      1720 PE      -0.019800
  10318 H22       -25.8370    8.2650   -3.6670 hc      1720 PE      -0.019800
  10319 C1        -25.8870    7.6850   -1.5470 c3      1720 PE       0.039600
  10320 C2        -26.4270    8.4550   -2.7670 c3      1720 PE       0.039600
  10321 H11       -25.3670   10.3950   -2.5170 hc      1721 PE      -0.019800
  10322 H12       -26.6270   10.4150   -3.6370 hc      1721 PE      -0.019800
  10323 H21       -27.2870   11.8450   -1.8770 hc      1721 PE      -0.019800
  10324 H22       -27.1370   10.4850   -0.6870 hc      1721 PE      -0.019800
  10325 C1        -26.3970   10.0450   -2.6270 c3      1721 PE       0.039600
  10326 C2        -27.3770   10.7550   -1.7170 c3      1721 PE       0.039600
  10327 H11       -29.0770    9.3450   -1.9170 hc      1722 PE      -0.019800
  10328 H12       -29.3170   10.9250   -1.1370 hc      1722 PE      -0.019800
  10329 H21       -28.6770   11.0350   -4.1070 hc      1722 PE      -0.019800
  10330 H22       -29.4270   12.2150   -3.0870 hc      1722 PE      -0.019800
  10331 C1        -28.8470   10.4150   -1.9870 c3      1722 PE       0.039600
  10332 C2        -29.3970   11.1350   -3.2970 c3      1722 PE       0.039600
  10333 H11       -31.5670   10.8850   -3.0170 hc      1723 PE      -0.019800
  10334 H12       -31.1370   11.3950   -4.4870 hc      1723 PE      -0.019800
  10335 H21       -29.8970    8.8050   -4.3970 hc      1723 PE      -0.019800
  10336 H22       -31.4970    9.1250   -4.9070 hc      1723 PE      -0.019800
  10337 C1        -30.7670   10.6950   -3.7370 c3      1723 PE       0.039600
  10338 C2        -30.8570    9.1850   -4.0170 c3      1723 PE       0.039600
  10339 H11       -31.3270    8.8650   -1.8970 hc      1724 PE      -0.019800
  10340 H12       -32.4870    8.0650   -2.9370 hc      1724 PE      -0.019800
  10341 H21       -29.6170    7.0450   -2.6970 hc      1724 PE      -0.019800
  10342 H22       -31.0470    6.2650   -3.3970 hc      1724 PE      -0.019800
  10343 C1        -31.4170    8.2850   -2.8170 c3      1724 PE       0.039600
  10344 C2        -30.6970    6.9450   -2.6070 c3      1724 PE       0.039600
  10345 H11       -31.0970    6.9950   -0.4570 hc      1725 PE      -0.019800
  10346 H12       -32.1270    5.8450   -1.3670 hc      1725 PE      -0.019800
  10347 H21       -29.1470    5.4650   -0.7970 hc      1725 PE      -0.019800
  10348 H22       -30.3170    4.2550   -1.4670 hc      1725 PE      -0.019800
  10349 C1        -31.1070    6.2350   -1.2470 c3      1725 PE       0.039600
  10350 C2        -30.1870    5.1050   -0.7870 c3      1725 PE       0.039600
  10351 H11       -30.5270    5.6050    1.2630 hc      1726 PE      -0.019800
  10352 H12       -31.6270    4.4350    0.7230 hc      1726 PE      -0.019800
  10353 H21       -28.6970    3.9050    1.4030 hc      1726 PE      -0.019800
  10354 H22       -29.6770    2.7650    0.4930 hc      1726 PE      -0.019800
  10355 C1        -30.5570    4.6850    0.6630 c3      1726 PE       0.039600
  10356 C2        -29.7270    3.5450    1.2630 c3      1726 PE       0.039600
  10357 H11       -30.5370    3.5050    3.3530 hc      1727 PE      -0.019800
  10358 H12       -31.5370    2.7750    2.2030 hc      1727 PE      -0.019800
  10359 H21       -29.2170    1.3450    3.4030 hc      1727 PE      -0.019800
  10360 H22       -29.4670    1.0050    1.7730 hc      1727 PE      -0.019800
  10361 C1        -30.4770    2.8650    2.4730 c3      1727 PE       0.039600
  10362 C2        -29.9970    1.4150    2.6430 c3      1727 PE       0.039600
  10363 H11       -31.7770    0.5250    2.2230 hc      1728 PE      -0.019800
  10364 H12       -30.7070   -0.5850    3.1030 hc      1728 PE      -0.019800
  10365 H21       -32.0770    1.8350    4.3230 hc      1728 PE      -0.019800
  10366 H22       -31.0270    0.7550    5.1330 hc      1728 PE      -0.019800
  10367 C1        -31.1270    0.4250    3.0930 c3      1728 PE       0.039600
  10368 C2        -31.8270    0.7650    4.3830 c3      1728 PE       0.039600
  10369 H11       -33.6070    0.2150    5.5330 hc      1729 PE      -0.019800
  10370 H12       -33.8070    0.1350    3.8230 hc      1729 PE      -0.019800
  10371 H21       -31.9270   -1.8250    5.3230 hc      1729 PE      -0.019800
  10372 H22       -32.4870   -2.0150    3.6430 hc      1729 PE      -0.019800
  10373 C1        -33.0770   -0.0850    4.6130 c3      1729 PE       0.039600
  10374 C2        -32.7670   -1.6650    4.6430 c3      1729 PE       0.039600
  10375 H11       -34.2370   -2.5150    6.1630 hc      1730 PE      -0.019800
  10376 H12       -34.8870   -2.2050    4.5830 hc      1730 PE      -0.019800
  10377 H21       -33.0570   -4.4850    5.4230 hc      1730 PE      -0.019800
  10378 H22       -33.5670   -4.1450    3.7330 hc      1730 PE      -0.019800
  10379 C1        -33.9970   -2.5750    5.0930 c3      1730 PE       0.039600
  10380 C2        -33.8470   -4.0650    4.7830 c3      1730 PE       0.039600
  10381 H11       -35.8070   -4.7550    5.8630 hc      1731 PE      -0.019800
  10382 H12       -35.7870   -4.3150    4.1830 hc      1731 PE      -0.019800
  10383 H21       -34.3470   -6.7750    5.4230 hc      1731 PE      -0.019800
  10384 H22       -34.3670   -6.5950    3.7130 hc      1731 PE      -0.019800
  10385 C1        -35.2170   -4.8650    4.9430 c3      1731 PE       0.039600
  10386 C2        -35.0070   -6.4650    4.6030 c3      1731 PE       0.039600
  10387 H11       -36.8870   -7.2250    5.5830 hc      1732 PE      -0.019800
  10388 H12       -37.0770   -6.9250    3.9030 hc      1732 PE      -0.019800
  10389 H21       -35.4170   -9.0750    5.1130 hc      1732 PE      -0.019800
  10390 H22       -35.5570   -8.8050    3.3430 hc      1732 PE      -0.019800
  10391 C1        -36.3370   -7.2650    4.6330 c3      1732 PE       0.039600
  10392 C2        -36.0770   -8.7150    4.3030 c3      1732 PE       0.039600
  10393 H11       -37.9270   -9.5050    5.2030 hc      1733 PE      -0.019800
  10394 H12       -37.9270   -9.2550    3.3930 hc      1733 PE      -0.019800
  10395 H21       -36.5370  -11.4550    4.8230 hc      1733 PE      -0.019800
  10396 H22       -36.4570  -11.1650    3.0330 hc      1733 PE      -0.019800
  10397 C1        -37.3770   -9.6350    4.2730 c3      1733 PE       0.039600
  10398 C2        -37.0570  -11.0650    3.9530 c3      1733 PE       0.039600
  10399 H11       -38.9070  -11.8250    4.8330 hc      1734 PE      -0.019800
  10400 H12       -39.1270  -11.3350    3.2630 hc      1734 PE      -0.019800
  10401 H21       -37.5870  -13.8950    4.2130 hc      1734 PE      -0.019800
  10402 H22       -37.7770  -13.3950    2.5030 hc      1734 PE      -0.019800
  10403 C1        -38.3970  -11.8950    3.8630 c3      1734 PE       0.039600
  10404 C2        -38.2270  -13.3550    3.5030 c3      1734 PE       0.039600
  10405 H11       -39.7370  -14.3150    4.7130 hc      1735 PE      -0.019800
  10406 H12       -40.4170  -13.2950    3.4930 hc      1735 PE      -0.019800
  10407 H21       -40.2570  -15.0050    1.7630 hc      1735 PE      -0.019800
  10408 H22       -40.7270  -15.8950    3.2530 hc      1735 PE      -0.019800
  10409 C1        -39.6470  -14.0550    3.6530 c3      1735 PE       0.039600
  10410 C2        -39.9370  -15.2950    2.7730 c3      1735 PE       0.039600
  10411 H11       -38.0170  -15.7950    1.9530 hc      1736 PE      -0.019800
  10412 H12       -38.2570  -16.4250    3.6430 hc      1736 PE      -0.019800
  10413 H21       -39.4070  -17.6650    1.0130 hc      1736 PE      -0.019800
  10414 H22       -40.1670  -17.9150    2.4930 hc      1736 PE      -0.019800
  10415 C1        -38.7170  -16.2550    2.6630 c3      1736 PE       0.039600
  10416 C2        -39.1870  -17.6550    2.0830 c3      1736 PE       0.039600
  10417 H11       -37.6470  -18.7550    3.2630 hc      1737 PE      -0.019800
  10418 H12       -38.6770  -19.7850    2.3030 hc      1737 PE      -0.019800
  10419 H21       -36.5370  -17.9850    1.2130 hc      1737 PE      -0.019800
  10420 H22       -37.4670  -19.0150    0.1730 hc      1737 PE      -0.019800
  10421 C1        -38.1270  -18.8350    2.2730 c3      1737 PE       0.039600
  10422 C2        -37.1070  -18.9250    1.2030 c3      1737 PE       0.039600
  10423 H11       -35.6470  -20.1250    2.4630 hc      1738 PE      -0.019800
  10424 H12       -36.7970  -21.0450    1.5130 hc      1738 PE      -0.019800
  10425 H21       -35.6970  -20.2950   -0.5570 hc      1738 PE      -0.019800
  10426 H22       -34.9070  -21.5250    0.5030 hc      1738 PE      -0.019800
  10427 C1        -36.1470  -20.1650    1.4830 c3      1738 PE       0.039600
  10428 C2        -35.1470  -20.4650    0.3830 c3      1738 PE       0.039600
  10429 H11       -34.2270  -18.4950    0.3030 hc      1739 PE      -0.019800
  10430 H12       -33.5470  -19.6250    1.5130 hc      1739 PE      -0.019800
  10431 H21       -31.9870  -19.0250   -0.2970 hc      1739 PE      -0.019800
  10432 H22       -33.1470  -19.5450   -1.5170 hc      1739 PE      -0.019800
  10433 C1        -33.8570  -19.5150    0.4630 c3      1739 PE       0.039600
  10434 C2        -32.7870  -19.7550   -0.5070 c3      1739 PE       0.039600
  10435 H11       -31.1270  -21.2750   -0.7070 hc      1740 PE      -0.019800
  10436 H12       -32.1770  -21.6450    0.6430 hc      1740 PE      -0.019800
  10437 H21       -32.7670  -22.0750   -2.3270 hc      1740 PE      -0.019800
  10438 H22       -32.5970  -23.2550   -0.9770 hc      1740 PE      -0.019800
  10439 C1        -32.1670  -21.2250   -0.3670 c3      1740 PE       0.039600
  10440 C2        -32.9470  -22.2550   -1.2570 c3      1740 PE       0.039600
  10441 H11       -33.9870   30.4550    8.5930 hc      1741 PE      -0.019800
  10442 H12       -33.9970   31.8650    9.6130 hc      1741 PE      -0.019800
  10443 H21       -35.2670   31.5650    6.8430 hc      1741 PE      -0.019800
  10444 H22       -34.0670   32.7950    7.2830 hc      1741 PE      -0.019800
  10445 C1        -34.6070   31.3150    8.8830 c3      1741 PE       0.039600
  10446 C2        -34.9470   32.2450    7.6430 c3      1741 PE       0.039600
  10447 H11       -37.0870   32.7950    7.7830 hc      1742 PE      -0.019800
  10448 H12       -35.9970   33.8050    8.8930 hc      1742 PE      -0.019800
  10449 H21       -35.4570   34.0250    5.9430 hc      1742 PE      -0.019800
  10450 H22       -35.2070   35.1750    7.1830 hc      1742 PE      -0.019800
  10451 C1        -36.1170   33.2950    7.9330 c3      1742 PE       0.039600
  10452 C2        -35.9170   34.4050    6.8630 c3      1742 PE       0.039600
  10453 H11       -37.1170   35.6650    5.4430 hc      1743 PE      -0.019800
  10454 H12       -37.9570   34.2950    5.9630 hc      1743 PE      -0.019800
  10455 H21       -37.4970   36.5850    7.8730 hc      1743 PE      -0.019800
  10456 H22       -38.2470   35.0850    8.3130 hc      1743 PE      -0.019800
  10457 C1        -37.2470   35.0350    6.3330 c3      1743 PE       0.039600
  10458 C2        -38.0470   35.7350    7.4530 c3      1743 PE       0.039600
  10459 H11       -39.2570   36.8650    6.2130 hc      1744 PE      -0.019800
  10460 H12       -40.0370   35.2650    6.5930 hc      1744 PE      -0.019800
  10461 H21       -39.9570   37.6450    8.4730 hc      1744 PE      -0.019800
  10462 H22       -40.6170   36.0350    8.8330 hc      1744 PE      -0.019800
  10463 C1        -39.4970   36.1350    6.9930 c3      1744 PE       0.039600
  10464 C2        -40.4470   36.7650    8.0330 c3      1744 PE       0.039600
  10465 H11        37.7230   36.3950    6.9430 hc      1745 PE      -0.019800
  10466 H12        37.6130   37.3750    8.4730 hc      1745 PE      -0.019800
  10467 H21        38.7630   38.3850    5.7930 hc      1745 PE      -0.019800
  10468 H22        38.8230   39.2750    7.2730 hc      1745 PE      -0.019800
  10469 C1         38.1630   37.2050    7.5330 c3      1745 PE       0.039600
  10470 C2         38.2230   38.5350    6.7330 c3      1745 PE       0.039600
  10471 H11        36.0630   38.2850    6.1230 hc      1746 PE      -0.019800
  10472 H12        36.3630   39.3050    7.4230 hc      1746 PE      -0.019800
  10473 H21        37.7330   40.9150    5.6930 hc      1746 PE      -0.019800
  10474 H22        36.0130   41.0450    5.9630 hc      1746 PE      -0.019800
  10475 C1         36.7830   39.0450    6.4430 c3      1746 PE       0.039600
  10476 C2         36.7930   40.3750    5.5730 c3      1746 PE       0.039600
  10477 H11        36.9630  -40.5550    3.4930 hc      1747 PE      -0.019800
  10478 H12        35.3730  -39.8650    3.9730 hc      1747 PE      -0.019800
  10479 H21        37.8330  -38.3850    3.0930 hc      1747 PE      -0.019800
  10480 H22        36.5130  -37.5050    3.8030 hc      1747 PE      -0.019800
  10481 C1         36.4530  -39.7550    4.0430 c3      1747 PE       0.039600
  10482 C2         36.7530  -38.4450    3.2730 c3      1747 PE       0.039600
  10483 H11        36.2830  -39.2550    1.2030 hc      1748 PE      -0.019800
  10484 H12        35.0130  -38.4450    2.0230 hc      1748 PE      -0.019800
  10485 H21        36.1130  -36.2150    1.8330 hc      1748 PE      -0.019800
  10486 H22        35.7930  -36.9250    0.2630 hc      1748 PE      -0.019800
  10487 C1         36.1030  -38.4150    1.8730 c3      1748 PE       0.039600
  10488 C2         36.4030  -37.0450    1.1630 c3      1748 PE       0.039600
  10489 H11        38.4530  -36.8250    1.6530 hc      1749 PE      -0.019800
  10490 H12        38.1330  -37.8450    0.1930 hc      1749 PE      -0.019800
  10491 H21        38.2330  -34.7850    0.1430 hc      1749 PE      -0.019800
  10492 H22        37.7730  -35.7450   -1.2170 hc      1749 PE      -0.019800
  10493 C1         37.8730  -36.9250    0.7330 c3      1749 PE       0.039600
  10494 C2         38.3930  -35.7650   -0.3170 c3      1749 PE       0.039600
  10495 H11       -39.4670  -35.7450    0.2430 hc      1750 PE      -0.019800
  10496 H12       -39.8970  -37.1250   -0.7370 hc      1750 PE      -0.019800
  10497 H21       -39.8270  -35.7350   -2.8670 hc      1750 PE      -0.019800
  10498 H22       -38.4570  -35.3850   -1.9670 hc      1750 PE      -0.019800
  10499 C1        -40.0770  -36.0550   -0.6170 c3      1750 PE       0.039600
  10500 C2        -39.5470  -35.2650   -1.9170 c3      1750 PE       0.039600
  10501 H11       -39.5470  -33.3450   -0.8570 hc      1751 PE      -0.019800
  10502 H12       -38.8870  -33.3650   -2.4370 hc      1751 PE      -0.019800
  10503 H21       -41.1370  -32.1650   -2.1270 hc      1751 PE      -0.019800
  10504 H22       -41.9170  -33.7250   -2.0570 hc      1751 PE      -0.019800
  10505 C1        -39.7270  -33.7750   -1.8570 c3      1751 PE       0.039600
  10506 C2        -41.0370  -33.2050   -2.4470 c3      1751 PE       0.039600
  10507 H11        39.5730  -32.3950   -4.2970 hc      1752 PE      -0.019800
  10508 H12        39.3730  -34.1750   -4.2970 hc      1752 PE      -0.019800
  10509 H21        37.7130  -33.0050   -5.6670 hc      1752 PE      -0.019800
  10510 H22        37.1730  -31.9850   -4.2470 hc      1752 PE      -0.019800
  10511 C1         38.9330  -33.2250   -3.9770 c3      1752 PE       0.039600
  10512 C2         37.5630  -32.9550   -4.5870 c3      1752 PE       0.039600
  10513 H11        36.1530  -33.9450   -3.2470 hc      1753 PE      -0.019800
  10514 H12        35.5930  -33.8050   -4.8270 hc      1753 PE      -0.019800
  10515 H21        37.8430  -35.7350   -3.9570 hc      1753 PE      -0.019800
  10516 H22        37.3030  -35.6350   -5.6670 hc      1753 PE      -0.019800
  10517 C1         36.5230  -34.0250   -4.2770 c3      1753 PE       0.039600
  10518 C2         37.0030  -35.5150   -4.6170 c3      1753 PE       0.039600
  10519 H11        35.8230  -36.3250   -3.0170 hc      1754 PE      -0.019800
  10520 H12        34.8630  -36.2550   -4.4170 hc      1754 PE      -0.019800
  10521 H21        37.1130  -38.2650   -3.8370 hc      1754 PE      -0.019800
  10522 H22        36.4030  -38.0550   -5.3870 hc      1754 PE      -0.019800
  10523 C1         35.8930  -36.4950   -4.0970 c3      1754 PE       0.039600
  10524 C2         36.1730  -37.9650   -4.3170 c3      1754 PE       0.039600
  10525 H11        34.7530  -38.6250   -2.7370 hc      1755 PE      -0.019800
  10526 H12        34.0330  -38.2950   -4.2470 hc      1755 PE      -0.019800
  10527 H21        34.8930  -40.4650   -5.1170 hc      1755 PE      -0.019800
  10528 H22        34.2630  -40.7450   -3.4670 hc      1755 PE      -0.019800
  10529 C1         34.9330  -38.7450   -3.8070 c3      1755 PE       0.039600
  10530 C2         35.0830  -40.2950   -4.0470 c3      1755 PE       0.039600
  10531 H11        37.2230   39.5450   -4.3370 hc      1756 PE      -0.019800
  10532 H12        36.7730   39.4750   -2.6970 hc      1756 PE      -0.019800
  10533 H21        35.9330   37.2650   -4.5970 hc      1756 PE      -0.019800
  10534 H22        36.3130   37.0250   -2.8670 hc      1756 PE      -0.019800
  10535 C1         36.4630   39.1050   -3.6870 c3      1756 PE       0.039600
  10536 C2         36.6130   37.5450   -3.7870 c3      1756 PE       0.039600
  10537 H11        38.4430   37.3850   -5.0670 hc      1757 PE      -0.019800
  10538 H12        38.6630   37.4350   -3.2970 hc      1757 PE      -0.019800
  10539 H21        37.9130   35.1050   -4.9770 hc      1757 PE      -0.019800
  10540 H22        37.7130   34.9550   -3.2370 hc      1757 PE      -0.019800
  10541 C1         38.0530   37.0250   -4.1070 c3      1757 PE       0.039600
  10542 C2         38.2830   35.4650   -4.0170 c3      1757 PE       0.039600
  10543 H11       -39.6970   35.7350   -4.7070 hc      1758 PE      -0.019800
  10544 H12       -39.7370   35.5250   -3.0070 hc      1758 PE      -0.019800
  10545 H21       -40.5470   33.0750   -4.8070 hc      1758 PE      -0.019800
  10546 H22       -40.1770   33.0550   -3.2170 hc      1758 PE      -0.019800
  10547 C1        -40.1770   35.1250   -3.9270 c3      1758 PE       0.039600
  10548 C2        -39.8670   33.5950   -4.1170 c3      1758 PE       0.039600
  10549 H11       -38.0470   33.7250   -5.2770 hc      1759 PE      -0.019800
  10550 H12       -37.6970   33.6450   -3.5470 hc      1759 PE      -0.019800
  10551 H21       -38.7770   31.2450   -5.1370 hc      1759 PE      -0.019800
  10552 H22       -38.6970   31.3150   -3.4470 hc      1759 PE      -0.019800
  10553 C1        -38.4170   33.3350   -4.3170 c3      1759 PE       0.039600
  10554 C2        -38.2370   31.7550   -4.3370 c3      1759 PE       0.039600
  10555 H11       -36.3670   31.5650   -5.4870 hc      1760 PE      -0.019800
  10556 H12       -36.1270   31.8950   -3.7270 hc      1760 PE      -0.019800
  10557 H21       -36.8770   29.0450   -4.7570 hc      1760 PE      -0.019800
  10558 H22       -36.7870   29.6250   -3.0970 hc      1760 PE      -0.019800
  10559 C1        -36.6870   31.3050   -4.4670 c3      1760 PE       0.039600
  10560 C2        -36.4270   29.8050   -4.1170 c3      1760 PE       0.039600
  10561 H11       -34.5070   29.8450   -5.0670 hc      1761 PE      -0.019800
  10562 H12       -34.4170   30.2150   -3.3770 hc      1761 PE      -0.019800
  10563 H21       -35.2870   27.4550   -4.5770 hc      1761 PE      -0.019800
  10564 H22       -34.8270   27.6550   -2.8370 hc      1761 PE      -0.019800
  10565 C1        -34.8870   29.5250   -4.0970 c3      1761 PE       0.039600
  10566 C2        -34.6570   28.0150   -3.8670 c3      1761 PE       0.039600
  10567 H11       -32.7570   27.9650   -4.9570 hc      1762 PE      -0.019800
  10568 H12       -32.5570   27.9450   -3.2470 hc      1762 PE      -0.019800
  10569 H21       -33.6470   25.6850   -4.9370 hc      1762 PE      -0.019800
  10570 H22       -33.2570   25.5050   -3.1870 hc      1762 PE      -0.019800
  10571 C1        -33.1770   27.5250   -4.0470 c3      1762 PE       0.039600
  10572 C2        -32.9770   25.9950   -4.1270 c3      1762 PE       0.039600
  10573 H11       -31.3970   26.1850   -5.6370 hc      1763 PE      -0.019800
  10574 H12       -30.7970   26.1150   -3.9570 hc      1763 PE      -0.019800
  10575 H21       -31.8370   23.7950   -5.5870 hc      1763 PE      -0.019800
  10576 H22       -31.6470   23.7050   -3.9270 hc      1763 PE      -0.019800
  10577 C1        -31.5670   25.7350   -4.6470 c3      1763 PE       0.039600
  10578 C2        -31.2270   24.2350   -4.7870 c3      1763 PE       0.039600
  10579 H11       -29.5770   24.2550   -6.2370 hc      1764 PE      -0.019800
  10580 H12       -29.0570   24.7250   -4.6370 hc      1764 PE      -0.019800
  10581 H21       -29.5870   21.9050   -5.6770 hc      1764 PE      -0.019800
  10582 H22       -29.3970   22.3350   -3.8770 hc      1764 PE      -0.019800
  10583 C1        -29.7270   24.0350   -5.1670 c3      1764 PE       0.039600
  10584 C2        -29.1770   22.5950   -4.9270 c3      1764 PE       0.039600
  10585 H11       -27.3570   22.6950   -5.9870 hc      1765 PE      -0.019800
  10586 H12       -27.1970   23.3250   -4.4070 hc      1765 PE      -0.019800
  10587 H21       -27.7770   20.3550   -4.8470 hc      1765 PE      -0.019800
  10588 H22       -27.0870   21.0850   -3.3670 hc      1765 PE      -0.019800
  10589 C1        -27.6770   22.5050   -4.9570 c3      1765 PE       0.039600
  10590 C2        -27.1370   21.1550   -4.4670 c3      1765 PE       0.039600
  10591 H11       -25.8570   20.6850   -5.9970 hc      1766 PE      -0.019800
  10592 H12       -25.1670   21.9250   -4.8870 hc      1766 PE      -0.019800
  10593 H21       -25.6470   19.0350   -4.5270 hc      1766 PE      -0.019800
  10594 H22       -25.0970   19.9650   -3.1370 hc      1766 PE      -0.019800
  10595 C1        -25.7070   20.9750   -4.9470 c3      1766 PE       0.039600
  10596 C2        -25.0170   19.8850   -4.2270 c3      1766 PE       0.039600
  10597 H11       -23.4970   19.5150   -5.7570 hc      1767 PE      -0.019800
  10598 H12       -22.9870   20.5550   -4.3670 hc      1767 PE      -0.019800
  10599 H21       -23.6070   17.6050   -3.8970 hc      1767 PE      -0.019800
  10600 H22       -22.7070   18.7350   -2.8270 hc      1767 PE      -0.019800
  10601 C1        -23.5470   19.6550   -4.6670 c3      1767 PE       0.039600
  10602 C2        -22.8870   18.4250   -3.8570 c3      1767 PE       0.039600
  10603 H11       -21.8970   17.3650   -5.4370 hc      1768 PE      -0.019800
  10604 H12       -21.0470   18.7850   -4.9470 hc      1768 PE      -0.019800
  10605 H21       -21.2670   15.9950   -3.6470 hc      1768 PE      -0.019800
  10606 H22       -20.6970   17.3050   -2.7070 hc      1768 PE      -0.019800
  10607 C1        -21.5970   17.9250   -4.5370 c3      1768 PE       0.039600
  10608 C2        -20.7070   16.9350   -3.7370 c3      1768 PE       0.039600
  10609 H11       -19.2470   16.3950   -5.3570 hc      1769 PE      -0.019800
  10610 H12       -18.7070   17.6150   -4.1070 hc      1769 PE      -0.019800
  10611 H21       -18.9270   14.6650   -3.5270 hc      1769 PE      -0.019800
  10612 H22       -18.3370   15.8750   -2.4070 hc      1769 PE      -0.019800
  10613 C1        -19.2370   16.6650   -4.2970 c3      1769 PE       0.039600
  10614 C2        -18.4570   15.6550   -3.4770 c3      1769 PE       0.039600
  10615 H11       -17.0170   14.6150   -4.7370 hc      1770 PE      -0.019800
  10616 H12       -16.5370   16.2550   -4.5170 hc      1770 PE      -0.019800
  10617 H21       -16.5070   14.2150   -2.2570 hc      1770 PE      -0.019800
  10618 H22       -15.2070   14.4150   -3.4270 hc      1770 PE      -0.019800
  10619 C1        -17.0170   15.4150   -3.9970 c3      1770 PE       0.039600
  10620 C2        -15.9970   14.9550   -2.8870 c3      1770 PE       0.039600
  10621 H11       -25.5070   11.1050   -8.5470 hc      1771 PE      -0.019800
  10622 H12       -24.3070   11.2750   -7.1770 hc      1771 PE      -0.019800
  10623 H21       -27.2470   10.6550   -6.7970 hc      1771 PE      -0.019800
  10624 H22       -26.1170   10.4550   -5.5870 hc      1771 PE      -0.019800
  10625 C1        -25.3670   11.3350   -7.4770 c3      1771 PE       0.039600
  10626 C2        -26.2070   10.3550   -6.6770 c3      1771 PE       0.039600
  10627 H11       -26.1570    8.9250   -8.2670 hc      1772 PE      -0.019800
  10628 H12       -25.0670    8.4150   -6.9570 hc      1772 PE      -0.019800
  10629 H21       -28.0370    8.0650   -7.0670 hc      1772 PE      -0.019800
  10630 H22       -27.2470    8.4250   -5.5170 hc      1772 PE      -0.019800
  10631 C1        -26.0270    8.8950   -7.1770 c3      1772 PE       0.039600
  10632 C2        -27.0870    8.0150   -6.5170 c3      1772 PE       0.039600
  10633 H11       -26.5970    6.0750   -7.4470 hc      1773 PE      -0.019800
  10634 H12       -25.7470    6.4350   -5.8670 hc      1773 PE      -0.019800
  10635 H21       -28.6770    5.6550   -6.0970 hc      1773 PE      -0.019800
  10636 H22       -27.8470    6.2850   -4.6670 hc      1773 PE      -0.019800
  10637 C1        -26.6870    6.4750   -6.4270 c3      1773 PE       0.039600
  10638 C2        -27.7170    5.6550   -5.5670 c3      1773 PE       0.039600
  10639 H11       -27.1270    3.6950   -6.2370 hc      1774 PE      -0.019800
  10640 H12       -26.3270    4.2550   -4.7370 hc      1774 PE      -0.019800
  10641 H21       -29.3770    3.6450   -4.8270 hc      1774 PE      -0.019800
  10642 H22       -28.2870    3.9550   -3.4870 hc      1774 PE      -0.019800
  10643 C1        -27.2870    4.1850   -5.2670 c3      1774 PE       0.039600
  10644 C2        -28.3670    3.4450   -4.4570 c3      1774 PE       0.039600
  10645 H11       -27.6570    1.6150   -5.3670 hc      1775 PE      -0.019800
  10646 H12       -27.2570    1.6250   -3.6370 hc      1775 PE      -0.019800
  10647 H21       -29.0270   -0.0950   -3.8570 hc      1775 PE      -0.019800
  10648 H22       -30.0570    1.1650   -4.7170 hc      1775 PE      -0.019800
  10649 C1        -28.0370    1.8750   -4.3670 c3      1775 PE       0.039600
  10650 C2        -29.2470    0.9650   -4.0070 c3      1775 PE       0.039600
  10651 H11       -29.1470    1.2550   -1.8470 hc      1776 PE      -0.019800
  10652 H12       -30.3470    2.3150   -2.7370 hc      1776 PE      -0.019800
  10653 H21       -30.5570   -0.5950   -2.0170 hc      1776 PE      -0.019800
  10654 H22       -31.6270    0.1550   -3.2670 hc      1776 PE      -0.019800
  10655 C1        -29.8770    1.3250   -2.6670 c3      1776 PE       0.039600
  10656 C2        -31.0670    0.3150   -2.3370 c3      1776 PE       0.039600
  10657 H11       -31.4970    0.7350   -0.2870 hc      1777 PE      -0.019800
  10658 H12       -32.1170    1.9850   -1.4570 hc      1777 PE      -0.019800
  10659 H21       -33.4570   -0.7350   -1.1970 hc      1777 PE      -0.019800
  10660 H22       -34.0670    0.7750   -1.9870 hc      1777 PE      -0.019800
  10661 C1        -32.0070    0.9050   -1.2470 c3      1777 PE       0.039600
  10662 C2        -33.4270    0.3650   -1.1970 c3      1777 PE       0.039600
  10663 H11       -33.6370    0.3850    0.8530 hc      1778 PE      -0.019800
  10664 H12       -33.9870    1.9550    0.1330 hc      1778 PE      -0.019800
  10665 H21       -35.8370   -0.4350   -0.2870 hc      1778 PE      -0.019800
  10666 H22       -36.2270    1.2650   -0.4370 hc      1778 PE      -0.019800
  10667 C1        -34.1470    0.8750    0.0030 c3      1778 PE       0.039600
  10668 C2        -35.6270    0.5550    0.1430 c3      1778 PE       0.039600
  10669 H11       -35.4170    0.2150    2.2730 hc      1779 PE      -0.019800
  10670 H12       -36.1270    1.6850    1.9030 hc      1779 PE      -0.019800
  10671 H21       -37.3170   -1.2050    1.4930 hc      1779 PE      -0.019800
  10672 H22       -38.2270    0.3150    1.1630 hc      1779 PE      -0.019800
  10673 C1        -36.1570    0.6450    1.5830 c3      1779 PE       0.039600
  10674 C2        -37.4670   -0.1650    1.7930 c3      1779 PE       0.039600
  10675 H11       -36.9070   -0.2650    3.9730 hc      1780 PE      -0.019800
  10676 H12       -38.0970    0.8650    3.4730 hc      1780 PE      -0.019800
  10677 H21       -39.5870   -1.2950    2.6930 hc      1780 PE      -0.019800
  10678 H22       -39.5170   -0.7050    4.3530 hc      1780 PE      -0.019800
  10679 C1        -37.7670   -0.1650    3.3030 c3      1780 PE       0.039600
  10680 C2        -38.9270   -1.1750    3.5630 c3      1780 PE       0.039600
  10681 H11       -38.3070   -3.1650    3.0930 hc      1781 PE      -0.019800
  10682 H12       -37.5670   -2.4950    4.6130 hc      1781 PE      -0.019800
  10683 H21       -39.9770   -2.6650    5.5330 hc      1781 PE      -0.019800
  10684 H22       -38.9370   -4.1350    5.3030 hc      1781 PE      -0.019800
  10685 C1        -38.4770   -2.5850    4.0130 c3      1781 PE       0.039600
  10686 C2        -39.5370   -3.3650    4.8030 c3      1781 PE       0.039600
  10687 H11        39.0730   -3.1250    3.1330 hc      1782 PE      -0.019800
  10688 H12        39.7930   -4.6550    3.2830 hc      1782 PE      -0.019800
  10689 H21        37.7930   -3.4350    5.3230 hc      1782 PE      -0.019800
  10690 H22        38.5830   -5.0950    5.4430 hc      1782 PE      -0.019800
  10691 C1         39.3530   -3.8650    3.8930 c3      1782 PE       0.039600
  10692 C2         38.1530   -4.3250    4.7930 c3      1782 PE       0.039600
  10693 H11        36.5930   -4.2150    3.1330 hc      1783 PE      -0.019800
  10694 H12        37.3330   -5.7350    3.3230 hc      1783 PE      -0.019800
  10695 H21        35.2730   -4.3750    5.1830 hc      1783 PE      -0.019800
  10696 H22        35.9530   -5.8950    5.5530 hc      1783 PE      -0.019800
  10697 C1         36.9230   -4.9050    3.9130 c3      1783 PE       0.039600
  10698 C2         35.6530   -5.2850    4.6930 c3      1783 PE       0.039600
  10699 H11        34.1730   -5.3250    3.1230 hc      1784 PE      -0.019800
  10700 H12        34.8730   -6.8250    3.2930 hc      1784 PE      -0.019800
  10701 H21        32.9730   -5.6050    5.3630 hc      1784 PE      -0.019800
  10702 H22        33.6530   -7.2150    5.4830 hc      1784 PE      -0.019800
  10703 C1         34.5230   -5.9950    3.9130 c3      1784 PE       0.039600
  10704 C2         33.3530   -6.4450    4.7730 c3      1784 PE       0.039600
  10705 H11        32.1130   -6.3150    3.1330 hc      1785 PE      -0.019800
  10706 H12        32.4630   -8.0250    3.5930 hc      1785 PE      -0.019800
  10707 H21        30.5530   -6.0650    5.1230 hc      1785 PE      -0.019800
  10708 H22        31.1530   -7.5050    5.8530 hc      1785 PE      -0.019800
  10709 C1         32.1930   -7.0250    3.9630 c3      1785 PE       0.039600
  10710 C2         30.8830   -7.0850    4.8730 c3      1785 PE       0.039600
  10711 H11        29.5830   -7.3750    3.2730 hc      1786 PE      -0.019800
  10712 H12        30.0830   -8.8250    4.0830 hc      1786 PE      -0.019800
  10713 H21        27.9930   -6.7350    5.0730 hc      1786 PE      -0.019800
  10714 H22        28.4530   -8.2750    5.8930 hc      1786 PE      -0.019800
  10715 C1         29.7530   -7.7950    4.2730 c3      1786 PE       0.039600
  10716 C2         28.4230   -7.7350    4.9430 c3      1786 PE       0.039600
  10717 H11        27.1930   -8.0350    3.0030 hc      1787 PE      -0.019800
  10718 H12        27.8530   -9.4550    3.8630 hc      1787 PE      -0.019800
  10719 H21        25.6930   -7.6450    5.0030 hc      1787 PE      -0.019800
  10720 H22        26.2130   -9.2250    5.6030 hc      1787 PE      -0.019800
  10721 C1         27.3530   -8.4850    3.9930 c3      1787 PE       0.039600
  10722 C2         26.1030   -8.6150    4.6930 c3      1787 PE       0.039600
  10723 H11        24.8530   -8.7750    2.8830 hc      1788 PE      -0.019800
  10724 H12        25.2530  -10.2650    3.6430 hc      1788 PE      -0.019800
  10725 H21        23.4030   -8.1450    4.8430 hc      1788 PE      -0.019800
  10726 H22        23.6830   -9.7050    5.5830 hc      1788 PE      -0.019800
  10727 C1         24.9930   -9.2250    3.8730 c3      1788 PE       0.039600
  10728 C2         23.6130   -9.2050    4.6130 c3      1788 PE       0.039600
  10729 H11        22.3930   -9.2950    2.7830 hc      1789 PE      -0.019800
  10730 H12        22.5230  -10.8450    3.6630 hc      1789 PE      -0.019800
  10731 H21        20.8930   -8.5850    4.8230 hc      1789 PE      -0.019800
  10732 H22        21.2030  -10.1650    5.4830 hc      1789 PE      -0.019800
  10733 C1         22.4230   -9.7650    3.7730 c3      1789 PE       0.039600
  10734 C2         21.1030   -9.6250    4.5330 c3      1789 PE       0.039600
  10735 H11        19.7530   -9.8650    2.7530 hc      1790 PE      -0.019800
  10736 H12        20.3430  -11.2950    3.4430 hc      1790 PE      -0.019800
  10737 H21        18.3630   -9.2750    4.7930 hc      1790 PE      -0.019800
  10738 H22        18.7430  -10.8650    5.4530 hc      1790 PE      -0.019800
  10739 C1         19.9230  -10.3250    3.7330 c3      1790 PE       0.039600
  10740 C2         18.5630  -10.3250    4.5130 c3      1790 PE       0.039600
  10741 H11        17.2930  -10.5250    2.6930 hc      1791 PE      -0.019800
  10742 H12        17.5130  -12.0150    3.5830 hc      1791 PE      -0.019800
  10743 H21        15.9530   -9.6650    4.8030 hc      1791 PE      -0.019800
  10744 H22        16.0630  -11.2450    5.5030 hc      1791 PE      -0.019800
  10745 C1         17.4030  -10.9350    3.7030 c3      1791 PE       0.039600
  10746 C2         16.0730  -10.7250    4.5330 c3      1791 PE       0.039600
  10747 H11        14.6430  -10.3050    2.9830 hc      1792 PE      -0.019800
  10748 H12        14.8830  -12.0850    3.3630 hc      1792 PE      -0.019800
  10749 H21        13.3630  -10.1150    5.0030 hc      1792 PE      -0.019800
  10750 H22        13.9230  -11.7850    5.5030 hc      1792 PE      -0.019800
  10751 C1         14.7930  -11.0650    3.7630 c3      1792 PE       0.039600
  10752 C2         13.5730  -11.1350    4.6830 c3      1792 PE       0.039600
  10753 H11        12.1630  -11.0450    3.0430 hc      1793 PE      -0.019800
  10754 H12        12.4330  -12.7250    3.4830 hc      1793 PE      -0.019800
  10755 H21        10.9330  -10.7250    5.4430 hc      1793 PE      -0.019800
  10756 H22        11.0030  -12.4750    5.5130 hc      1793 PE      -0.019800
  10757 C1         12.3330  -11.7150    3.8930 c3      1793 PE       0.039600
  10758 C2         11.0630  -11.6250    4.8230 c3      1793 PE       0.039600
  10759 H11         9.7130  -11.1650    3.1530 hc      1794 PE      -0.019800
  10760 H12         9.8730  -12.8250    3.5130 hc      1794 PE      -0.019800
  10761 H21         8.3530  -10.9350    5.3230 hc      1794 PE      -0.019800
  10762 H22         8.5730  -12.5850    5.8030 hc      1794 PE      -0.019800
  10763 C1          9.7730  -11.8550    4.0130 c3      1794 PE       0.039600
  10764 C2          8.5230  -11.9450    4.9130 c3      1794 PE       0.039600
  10765 H11         7.3630  -11.8550    3.1230 hc      1795 PE      -0.019800
  10766 H12         7.3230  -13.4250    3.9430 hc      1795 PE      -0.019800
  10767 H21         6.0630  -10.9450    5.2730 hc      1795 PE      -0.019800
  10768 H22         5.8530  -12.6350    5.6930 hc      1795 PE      -0.019800
  10769 C1          7.2630  -12.3450    4.1030 c3      1795 PE       0.039600
  10770 C2          5.9430  -11.9450    4.8430 c3      1795 PE       0.039600
  10771 H11         4.7430  -11.2550    3.2830 hc      1796 PE      -0.019800
  10772 H12         4.7630  -12.9950    3.4730 hc      1796 PE      -0.019800
  10773 H21         3.2630  -11.0150    5.4430 hc      1796 PE      -0.019800
  10774 H22         3.3830  -12.7250    5.7730 hc      1796 PE      -0.019800
  10775 C1          4.6630  -12.0550    4.0330 c3      1796 PE       0.039600
  10776 C2          3.3230  -11.9950    4.9530 c3      1796 PE       0.039600
  10777 H11         2.0930  -13.0850    3.6030 hc      1797 PE      -0.019800
  10778 H12         1.2130  -12.7550    4.9830 hc      1797 PE      -0.019800
  10779 H21         2.1530  -10.3650    3.1730 hc      1797 PE      -0.019800
  10780 H22         0.7730  -10.3650    4.2730 hc      1797 PE      -0.019800
  10781 C1          1.9430  -12.2650    4.3230 c3      1797 PE       0.039600
  10782 C2          1.3130  -10.9750    3.5330 c3      1797 PE       0.039600
  10783 H11         1.0630  -11.8450    1.5830 hc      1798 PE      -0.019800
  10784 H12        -0.3170  -11.9950    2.6930 hc      1798 PE      -0.019800
  10785 H21         0.7230   -9.4950    1.2030 hc      1798 PE      -0.019800
  10786 H22        -0.5870   -9.5450    2.3830 hc      1798 PE      -0.019800
  10787 C1          0.4530  -11.3150    2.3230 c3      1798 PE       0.039600
  10788 C2         -0.0670  -10.1350    1.6130 c3      1798 PE       0.039600
  10789 H11        -0.9070   -9.8050   -0.4670 hc      1799 PE      -0.019800
  10790 H12        -1.0470  -11.4950    0.0330 hc      1799 PE      -0.019800
  10791 H21        -2.6870   -9.1850    1.0730 hc      1799 PE      -0.019800
  10792 H22        -2.7770  -10.9250    1.7030 hc      1799 PE      -0.019800
  10793 C1         -1.0570  -10.4650    0.3930 c3      1799 PE       0.039600
  10794 C2         -2.5570  -10.2550    0.8530 c3      1799 PE       0.039600
  10795 H11        -3.3270  -10.1650   -1.2470 hc      1800 PE      -0.019800
  10796 H12        -3.4770  -11.7750   -0.6170 hc      1800 PE      -0.019800
  10797 H21        -5.6870  -10.7150   -0.9170 hc      1800 PE      -0.019800
  10798 H22        -5.1970   -9.3350    0.1030 hc      1800 PE      -0.019800
  10799 C1         -3.5970  -10.7250   -0.3370 c3      1800 PE       0.039600
  10800 C2         -5.0870  -10.4150   -0.0470 c3      1800 PE       0.039600
  10801 H11        -0.5570   -8.8850    7.4130 hc      1801 PE      -0.019800
  10802 H12        -2.0270   -8.4650    8.2730 hc      1801 PE      -0.019800
  10803 H21         0.0730   -8.6450   10.2730 hc      1801 PE      -0.019800
  10804 H22        -0.5270   -7.1150    9.6430 hc      1801 PE      -0.019800
  10805 C1         -1.0170   -8.8650    8.4130 c3      1801 PE       0.039600
  10806 C2         -0.0170   -8.0450    9.3630 c3      1801 PE       0.039600
  10807 H11         1.6130   -9.0050    8.5030 hc      1802 PE      -0.019800
  10808 H12         1.0730   -7.4350    7.7330 hc      1802 PE      -0.019800
  10809 H21         2.6530   -7.6450   10.2730 hc      1802 PE      -0.019800
  10810 H22         2.1230   -6.0950    9.4230 hc      1802 PE      -0.019800
  10811 C1          1.2830   -7.9650    8.6730 c3      1802 PE       0.039600
  10812 C2          2.4430   -7.1350    9.3230 c3      1802 PE       0.039600
  10813 H11         4.1030   -8.2450    8.4030 hc      1803 PE      -0.019800
  10814 H12         3.3830   -6.9750    7.4230 hc      1803 PE      -0.019800
  10815 H21         4.9430   -6.2850   10.0630 hc      1803 PE      -0.019800
  10816 H22         4.2730   -5.1550    8.8430 hc      1803 PE      -0.019800
  10817 C1          3.7330   -7.2150    8.4330 c3      1803 PE       0.039600
  10818 C2          4.6930   -6.1550    9.0030 c3      1803 PE       0.039600
  10819 H11         6.1830   -7.2750    7.6730 hc      1804 PE      -0.019800
  10820 H12         5.9230   -5.6350    7.2230 hc      1804 PE      -0.019800
  10821 H21         7.3530   -6.5950    9.7030 hc      1804 PE      -0.019800
  10822 H22         7.2330   -4.8750    9.3030 hc      1804 PE      -0.019800
  10823 C1          6.0230   -6.2750    8.1030 c3      1804 PE       0.039600
  10824 C2          7.2930   -5.8850    8.8730 c3      1804 PE       0.039600
  10825 H11         8.4930   -7.0350    7.6230 hc      1805 PE      -0.019800
  10826 H12         8.5930   -5.2650    7.3430 hc      1805 PE      -0.019800
  10827 H21        10.0530   -6.6250    9.5930 hc      1805 PE      -0.019800
  10828 H22         9.7130   -4.8850    9.4930 hc      1805 PE      -0.019800
  10829 C1          8.5530   -6.0450    8.1030 c3      1805 PE       0.039600
  10830 C2          9.8230   -5.8050    8.9030 c3      1805 PE       0.039600
  10831 H11        11.3930   -6.4950    7.4530 hc      1806 PE      -0.019800
  10832 H12        10.9030   -4.8150    7.3330 hc      1806 PE      -0.019800
  10833 H21        12.5430   -6.4050    9.4330 hc      1806 PE      -0.019800
  10834 H22        12.2730   -4.5550    9.5230 hc      1806 PE      -0.019800
  10835 C1         11.0930   -5.6250    8.0530 c3      1806 PE       0.039600
  10836 C2         12.3830   -5.4550    8.9030 c3      1806 PE       0.039600
  10837 H11        13.8830   -6.2050    7.5330 hc      1807 PE      -0.019800
  10838 H12        13.5730   -4.4950    7.3630 hc      1807 PE      -0.019800
  10839 H21        15.1430   -5.9550    9.5930 hc      1807 PE      -0.019800
  10840 H22        14.7430   -4.2250    9.5930 hc      1807 PE      -0.019800
  10841 C1         13.6630   -5.2950    8.1130 c3      1807 PE       0.039600
  10842 C2         14.9530   -5.0850    8.9430 c3      1807 PE       0.039600
  10843 H11        16.3730   -5.8350    7.4830 hc      1808 PE      -0.019800
  10844 H12        16.0230   -4.0650    7.4530 hc      1808 PE      -0.019800
  10845 H21        17.6230   -5.3750    9.6430 hc      1808 PE      -0.019800
  10846 H22        17.4030   -3.6950    9.5130 hc      1808 PE      -0.019800
  10847 C1         16.2330   -4.9350    8.0930 c3      1808 PE       0.039600
  10848 C2         17.5430   -4.5850    8.8930 c3      1808 PE       0.039600
  10849 H11        19.2630   -5.3350    7.7630 hc      1809 PE      -0.019800
  10850 H12        18.4330   -3.8650    7.0930 hc      1809 PE      -0.019800
  10851 H21        20.1730   -4.1250    9.7030 hc      1809 PE      -0.019800
  10852 H22        19.5530   -2.6350    9.0830 hc      1809 PE      -0.019800
  10853 C1         18.8130   -4.3650    7.9930 c3      1809 PE       0.039600
  10854 C2         19.9030   -3.6250    8.7730 c3      1809 PE       0.039600
  10855 H11        21.5330   -4.4050    7.4530 hc      1810 PE      -0.019800
  10856 H12        21.0330   -2.7450    7.0230 hc      1810 PE      -0.019800
  10857 H21        22.4830   -3.3750    9.6830 hc      1810 PE      -0.019800
  10858 H22        21.9630   -1.8350    9.1230 hc      1810 PE      -0.019800
  10859 C1         21.1930   -3.4350    7.8530 c3      1810 PE       0.039600
  10860 C2         22.3030   -2.8150    8.7530 c3      1810 PE       0.039600
  10861 H11        23.9430   -3.4250    7.4730 hc      1811 PE      -0.019800
  10862 H12        23.4930   -1.8050    7.1530 hc      1811 PE      -0.019800
  10863 H21        24.7130   -2.9650    9.7230 hc      1811 PE      -0.019800
  10864 H22        24.4730   -1.2850    9.6230 hc      1811 PE      -0.019800
  10865 C1         23.6030   -2.5150    7.9830 c3      1811 PE       0.039600
  10866 C2         24.6830   -2.1550    8.9830 c3      1811 PE       0.039600
  10867 H11        26.3530   -2.8650    7.7730 hc      1812 PE      -0.019800
  10868 H12        26.0230   -1.2050    7.4430 hc      1812 PE      -0.019800
  10869 H21        27.5530   -2.5950    9.6930 hc      1812 PE      -0.019800
  10870 H22        27.0830   -0.8350    9.8530 hc      1812 PE      -0.019800
  10871 C1         26.0530   -1.9350    8.2630 c3      1812 PE       0.039600
  10872 C2         27.2830   -1.6750    9.1730 c3      1812 PE       0.039600
  10873 H11        28.8130   -2.1750    7.7030 hc      1813 PE      -0.019800
  10874 H12        28.1830   -0.5750    7.4530 hc      1813 PE      -0.019800
  10875 H21        29.9930   -1.5250    9.8030 hc      1813 PE      -0.019800
  10876 H22        29.3930    0.1150    9.7130 hc      1813 PE      -0.019800
  10877 C1         28.4530   -1.2850    8.2430 c3      1813 PE       0.039600
  10878 C2         29.6830   -0.7450    9.0930 c3      1813 PE       0.039600
  10879 H11        30.9430   -1.0150    7.4630 hc      1814 PE      -0.019800
  10880 H12        30.5530    0.6650    7.7730 hc      1814 PE      -0.019800
  10881 H21        32.2730   -0.8250    9.8530 hc      1814 PE      -0.019800
  10882 H22        32.0330    0.9050    9.6130 hc      1814 PE      -0.019800
  10883 C1         30.7830   -0.2850    8.2730 c3      1814 PE       0.039600
  10884 C2         32.0730   -0.0650    9.0930 c3      1814 PE       0.039600
  10885 H11        33.3930   -1.1150    7.8130 hc      1815 PE      -0.019800
  10886 H12        33.1330    0.5750    7.4130 hc      1815 PE      -0.019800
  10887 H21        34.7830   -0.6150    9.7230 hc      1815 PE      -0.019800
  10888 H22        34.3430    1.1350    9.5730 hc      1815 PE      -0.019800
  10889 C1         33.3030   -0.1150    8.2530 c3      1815 PE       0.039600
  10890 C2         34.5530    0.2050    9.0230 c3      1815 PE       0.039600
  10891 H11        35.9430   -0.5950    7.6830 hc      1816 PE      -0.019800
  10892 H12        35.6430    1.1250    7.3230 hc      1816 PE      -0.019800
  10893 H21        37.3330    0.2650    9.7830 hc      1816 PE      -0.019800
  10894 H22        36.7430    1.7650    9.3930 hc      1816 PE      -0.019800
  10895 C1         35.7330    0.3850    8.1330 c3      1816 PE       0.039600
  10896 C2         37.0330    0.8350    8.8930 c3      1816 PE       0.039600
  10897 H11        38.5030    0.0050    7.5730 hc      1817 PE      -0.019800
  10898 H12        38.0730    1.6750    7.1530 hc      1817 PE      -0.019800
  10899 H21        39.7330    0.7750    9.6530 hc      1817 PE      -0.019800
  10900 H22        39.1630    2.4150    9.4030 hc      1817 PE      -0.019800
  10901 C1         38.3030    1.0050    7.9930 c3      1817 PE       0.039600
  10902 C2         39.4930    1.5150    8.8730 c3      1817 PE       0.039600
  10903 H11       -38.9470    1.1250    7.2630 hc      1818 PE      -0.019800
  10904 H12       -39.5970    2.7150    7.2630 hc      1818 PE      -0.019800
  10905 H21       -37.7670    1.7050    9.6230 hc      1818 PE      -0.019800
  10906 H22       -38.4170    3.3250    9.3630 hc      1818 PE      -0.019800
  10907 C1        -39.3070    1.9050    7.9430 c3      1818 PE       0.039600
  10908 C2        -38.1170    2.4050    8.8430 c3      1818 PE       0.039600
  10909 H11       -36.6270    1.9050    7.3030 hc      1819 PE      -0.019800
  10910 H12       -37.0470    3.5550    7.2930 hc      1819 PE      -0.019800
  10911 H21       -35.3970    2.1550    9.5330 hc      1819 PE      -0.019800
  10912 H22       -35.7470    3.9050    9.3930 hc      1819 PE      -0.019800
  10913 C1        -36.8570    2.7350    7.9930 c3      1819 PE       0.039600
  10914 C2        -35.5470    2.9850    8.8330 c3      1819 PE       0.039600
  10915 H11       -34.0170    2.0650    7.6230 hc      1820 PE      -0.019800
  10916 H12       -34.4970    3.7350    7.1030 hc      1820 PE      -0.019800
  10917 H21       -32.8570    2.9450    9.6630 hc      1820 PE      -0.019800
  10918 H22       -33.4070    4.5850    9.2030 hc      1820 PE      -0.019800
  10919 C1        -34.3270    3.0650    7.9530 c3      1820 PE       0.039600
  10920 C2        -33.1570    3.5850    8.8230 c3      1820 PE       0.039600
  10921 H11       -31.5570    2.8150    7.5730 hc      1821 PE      -0.019800
  10922 H12       -32.0870    4.4650    7.0630 hc      1821 PE      -0.019800
  10923 H21       -30.4770    3.7150    9.4130 hc      1821 PE      -0.019800
  10924 H22       -31.0970    5.3950    9.1430 hc      1821 PE      -0.019800
  10925 C1        -31.8870    3.8050    7.9130 c3      1821 PE       0.039600
  10926 C2        -30.7570    4.4650    8.6730 c3      1821 PE       0.039600
  10927 H11       -29.6970    5.7450    7.1630 hc      1822 PE      -0.019800
  10928 H12       -28.6870    5.3150    8.3930 hc      1822 PE      -0.019800
  10929 H21       -29.6670    3.2450    6.3630 hc      1822 PE      -0.019800
  10930 H22       -28.8170    2.8250    7.8430 hc      1822 PE      -0.019800
  10931 C1        -29.5070    4.8850    7.8130 c3      1822 PE       0.039600
  10932 C2        -28.9470    3.6250    7.1030 c3      1822 PE       0.039600
  10933 H11       -27.7070    4.8850    5.9830 hc      1823 PE      -0.019800
  10934 H12       -26.8770    4.0150    7.3230 hc      1823 PE      -0.019800
  10935 H21       -27.6870    2.6750    4.6830 hc      1823 PE      -0.019800
  10936 H22       -27.0470    1.8050    5.9430 hc      1823 PE      -0.019800
  10937 C1        -27.5670    3.9150    6.4830 c3      1823 PE       0.039600
  10938 C2        -27.0270    2.8350    5.5530 c3      1823 PE       0.039600
  10939 H11       -25.6270    4.0450    4.4430 hc      1824 PE      -0.019800
  10940 H12       -24.8270    3.1050    5.7730 hc      1824 PE      -0.019800
  10941 H21       -24.1570    2.2450    3.3930 hc      1824 PE      -0.019800
  10942 H22       -25.7970    1.9750    3.0630 hc      1824 PE      -0.019800
  10943 C1        -25.5570    3.0750    4.9530 c3      1824 PE       0.039600
  10944 C2        -25.1070    2.0150    3.9130 c3      1824 PE       0.039600
  10945 H11       -24.0570    0.7750    5.3730 hc      1825 PE      -0.019800
  10946 H12       -25.7370    0.2150    5.1130 hc      1825 PE      -0.019800
  10947 H21       -23.4370   -0.4050    3.3130 hc      1825 PE      -0.019800
  10948 H22       -25.2370   -0.7850    3.0530 hc      1825 PE      -0.019800
  10949 C1        -24.8570    0.6350    4.6330 c3      1825 PE       0.039600
  10950 C2        -24.4170   -0.6150    3.7630 c3      1825 PE       0.039600
  10951 H11       -23.1170   -1.8250    5.0130 hc      1826 PE      -0.019800
  10952 H12       -24.7170   -1.8250    5.5730 hc      1826 PE      -0.019800
  10953 H21       -23.5370   -3.2650    3.1230 hc      1826 PE      -0.019800
  10954 H22       -25.2470   -3.2050    3.3130 hc      1826 PE      -0.019800
  10955 C1        -24.1470   -1.8650    4.6430 c3      1826 PE       0.039600
  10956 C2        -24.3170   -3.2250    3.8930 c3      1826 PE       0.039600
  10957 H11       -23.3470   -4.5450    5.2830 hc      1827 PE      -0.019800
  10958 H12       -25.1670   -4.4250    5.5730 hc      1827 PE      -0.019800
  10959 H21       -23.6970   -5.9050    3.3730 hc      1827 PE      -0.019800
  10960 H22       -25.4770   -5.6350    3.4630 hc      1827 PE      -0.019800
  10961 C1        -24.3470   -4.4850    4.8430 c3      1827 PE       0.039600
  10962 C2        -24.5470   -5.7450    4.0430 c3      1827 PE       0.039600
  10963 H11       -23.9870   -7.1250    5.5530 hc      1828 PE      -0.019800
  10964 H12       -25.7170   -6.7250    5.6130 hc      1828 PE      -0.019800
  10965 H21       -24.3870   -8.5450    3.4530 hc      1828 PE      -0.019800
  10966 H22       -26.1170   -8.0350    3.5430 hc      1828 PE      -0.019800
  10967 C1        -24.8870   -7.0050    4.9530 c3      1828 PE       0.039600
  10968 C2        -25.2270   -8.3050    4.1130 c3      1828 PE       0.039600
  10969 H11       -25.0170   -9.5750    5.9830 hc      1829 PE      -0.019800
  10970 H12       -26.5870   -9.2850    5.4030 hc      1829 PE      -0.019800
  10971 H21       -24.4870  -10.9650    4.1130 hc      1829 PE      -0.019800
  10972 H22       -26.1070  -10.6850    3.3230 hc      1829 PE      -0.019800
  10973 C1        -25.5870   -9.5250    5.0530 c3      1829 PE       0.039600
  10974 C2        -25.5770  -10.8850    4.2630 c3      1829 PE       0.039600
  10975 H11       -25.4670  -12.2950    6.0730 hc      1830 PE      -0.019800
  10976 H12       -27.0670  -11.6850    5.6430 hc      1830 PE      -0.019800
  10977 H21       -26.9670  -13.2750    3.5030 hc      1830 PE      -0.019800
  10978 H22       -25.3270  -13.8550    4.2230 hc      1830 PE      -0.019800
  10979 C1        -26.1070  -12.0250    5.2230 c3      1830 PE       0.039600
  10980 C2        -26.3070  -13.3850    4.3730 c3      1830 PE       0.039600
  10981 H11         6.5530   15.8750    0.5030 hc      1831 PE      -0.019800
  10982 H12         6.9530   17.4550    0.9330 hc      1831 PE      -0.019800
  10983 H21         4.3830   16.8850    1.3930 hc      1831 PE      -0.019800
  10984 H22         4.2130   16.5050   -0.2970 hc      1831 PE      -0.019800
  10985 C1          6.2830   16.9150    0.2530 c3      1831 PE       0.039600
  10986 C2          4.7830   17.1350    0.3930 c3      1831 PE       0.039600
  10987 H11         5.0430   19.2050    0.8930 hc      1832 PE      -0.019800
  10988 H12         5.0130   18.8450   -0.7770 hc      1832 PE      -0.019800
  10989 H21         2.5030   18.4750    1.0830 hc      1832 PE      -0.019800
  10990 H22         2.5730   18.2550   -0.6770 hc      1832 PE      -0.019800
  10991 C1          4.4930   18.6050    0.1630 c3      1832 PE       0.039600
  10992 C2          2.9730   18.8350    0.1630 c3      1832 PE       0.039600
  10993 H11         3.0730   20.9650    0.7730 hc      1833 PE      -0.019800
  10994 H12         2.7530   20.7050   -0.9370 hc      1833 PE      -0.019800
  10995 H21         0.7030   20.3650    1.2330 hc      1833 PE      -0.019800
  10996 H22         0.4830   19.6950   -0.4170 hc      1833 PE      -0.019800
  10997 C1          2.5230   20.3250    0.0630 c3      1833 PE       0.039600
  10998 C2          0.9830   20.4650    0.1830 c3      1833 PE       0.039600
  10999 H11         0.7230   22.6550    0.2930 hc      1834 PE      -0.019800
  11000 H12         0.7830   22.0050   -1.3270 hc      1834 PE      -0.019800
  11001 H21        -1.5770   21.3850    0.6030 hc      1834 PE      -0.019800
  11002 H22        -1.5470   21.1950   -1.1370 hc      1834 PE      -0.019800
  11003 C1          0.4030   21.7950   -0.3170 c3      1834 PE       0.039600
  11004 C2         -1.2070   21.8450   -0.3170 c3      1834 PE       0.039600
  11005 H11        -1.3770   23.9250    0.4430 hc      1835 PE      -0.019800
  11006 H12        -1.3470   23.8250   -1.3170 hc      1835 PE      -0.019800
  11007 H21        -3.6170   22.7050    0.3530 hc      1835 PE      -0.019800
  11008 H22        -3.6270   22.9050   -1.3470 hc      1835 PE      -0.019800
  11009 C1         -1.6770   23.3050   -0.4170 c3      1835 PE       0.039600
  11010 C2         -3.2170   23.3450   -0.4370 c3      1835 PE       0.039600
  11011 H11        -3.4770   25.4150    0.3630 hc      1836 PE      -0.019800
  11012 H12        -3.4970   25.3750   -1.3570 hc      1836 PE      -0.019800
  11013 H21        -5.7270   24.5150    0.5830 hc      1836 PE      -0.019800
  11014 H22        -5.6770   24.3450   -1.1770 hc      1836 PE      -0.019800
  11015 C1         -3.7870   24.7850   -0.4770 c3      1836 PE       0.039600
  11016 C2         -5.3170   24.9550   -0.3370 c3      1836 PE       0.039600
  11017 H11        -5.2570   27.0950    0.2930 hc      1837 PE      -0.019800
  11018 H12        -5.3970   26.9050   -1.4370 hc      1837 PE      -0.019800
  11019 H21        -7.7070   26.0750    0.3130 hc      1837 PE      -0.019800
  11020 H22        -7.6070   26.1250   -1.4070 hc      1837 PE      -0.019800
  11021 C1         -5.7270   26.4750   -0.4870 c3      1837 PE       0.039600
  11022 C2         -7.2170   26.6150   -0.4970 c3      1837 PE       0.039600
  11023 H11        -7.6370   28.4150    0.6630 hc      1838 PE      -0.019800
  11024 H12        -6.9370   28.8150   -0.8770 hc      1838 PE      -0.019800
  11025 H21        -9.7070   27.8950   -0.1270 hc      1838 PE      -0.019800
  11026 H22        -9.3370   27.9650   -1.7970 hc      1838 PE      -0.019800
  11027 C1         -7.6470   28.1250   -0.3970 c3      1838 PE       0.039600
  11028 C2         -9.0470   28.4050   -0.8370 c3      1838 PE       0.039600
  11029 H11        -9.2970   30.3550    0.1930 hc      1839 PE      -0.019800
  11030 H12        -9.0870   30.5650   -1.5870 hc      1839 PE      -0.019800
  11031 H21       -11.5070   29.2650   -0.1770 hc      1839 PE      -0.019800
  11032 H22       -11.4870   29.8150   -1.7870 hc      1839 PE      -0.019800
  11033 C1         -9.5070   29.9250   -0.7970 c3      1839 PE       0.039600
  11034 C2        -11.0770   30.0550   -0.7970 c3      1839 PE       0.039600
  11035 H11       -11.1970   31.9250    0.2930 hc      1840 PE      -0.019800
  11036 H12       -11.2470   32.0850   -1.4170 hc      1840 PE      -0.019800
  11037 H21       -13.5670   30.9150    0.3930 hc      1840 PE      -0.019800
  11038 H22       -13.7070   30.9450   -1.3070 hc      1840 PE      -0.019800
  11039 C1        -11.6470   31.4750   -0.5970 c3      1840 PE       0.039600
  11040 C2        -13.2070   31.4650   -0.4870 c3      1840 PE       0.039600
  11041 H11       -13.3970   33.5750    0.2530 hc      1841 PE      -0.019800
  11042 H12       -13.4670   33.4350   -1.4170 hc      1841 PE      -0.019800
  11043 H21       -15.6670   32.5450    0.6330 hc      1841 PE      -0.019800
  11044 H22       -15.8570   32.3250   -1.1270 hc      1841 PE      -0.019800
  11045 C1        -13.8270   32.9150   -0.5170 c3      1841 PE       0.039600
  11046 C2        -15.3970   32.9550   -0.3470 c3      1841 PE       0.039600
  11047 H11       -15.3570   35.1650    0.0330 hc      1842 PE      -0.019800
  11048 H12       -16.0070   34.6350   -1.5070 hc      1842 PE      -0.019800
  11049 H21       -17.4670   34.3950    1.1730 hc      1842 PE      -0.019800
  11050 H22       -17.8170   33.5050   -0.3470 hc      1842 PE      -0.019800
  11051 C1        -16.0070   34.4150   -0.4370 c3      1842 PE       0.039600
  11052 C2        -17.3870   34.4250    0.0730 c3      1842 PE       0.039600
  11053 H11       -17.6670   36.5550    0.0330 hc      1843 PE      -0.019800
  11054 H12       -18.0870   35.8150   -1.5270 hc      1843 PE      -0.019800
  11055 H21       -19.6870   35.7950    1.2030 hc      1843 PE      -0.019800
  11056 H22       -20.0970   34.7350   -0.0570 hc      1843 PE      -0.019800
  11057 C1        -18.2170   35.7350   -0.4370 c3      1843 PE       0.039600
  11058 C2        -19.6370   35.7150    0.1030 c3      1843 PE       0.039600
  11059 H11       -20.1470   37.8550   -0.5470 hc      1844 PE      -0.019800
  11060 H12       -20.6570   36.4750   -1.5870 hc      1844 PE      -0.019800
  11061 H21       -22.1970   37.0650    0.9430 hc      1844 PE      -0.019800
  11062 H22       -22.2770   35.6850   -0.0670 hc      1844 PE      -0.019800
  11063 C1        -20.5370   36.8250   -0.5570 c3      1844 PE       0.039600
  11064 C2        -22.0170   36.7450   -0.0970 c3      1844 PE       0.039600
  11065 H11       -24.0270   37.4450   -0.2670 hc      1845 PE      -0.019800
  11066 H12       -22.9170   38.5850   -0.8970 hc      1845 PE      -0.019800
  11067 H21       -23.6670   35.8750   -2.1970 hc      1845 PE      -0.019800
  11068 H22       -22.4770   37.1050   -2.8770 hc      1845 PE      -0.019800
  11069 C1        -23.1170   37.5050   -0.8770 c3      1845 PE       0.039600
  11070 C2        -23.4170   36.9350   -2.3370 c3      1845 PE       0.039600
  11071 H11       -25.4970   37.6150   -2.3470 hc      1846 PE      -0.019800
  11072 H12       -24.4770   38.7250   -3.2770 hc      1846 PE      -0.019800
  11073 H21       -26.0270   36.9550   -4.5470 hc      1846 PE      -0.019800
  11074 H22       -24.6970   35.8450   -4.3070 hc      1846 PE      -0.019800
  11075 C1        -24.6470   37.6650   -3.0370 c3      1846 PE       0.039600
  11076 C2        -24.9470   36.9050   -4.3570 c3      1846 PE       0.039600
  11077 H11       -24.4770   38.6150   -5.6270 hc      1847 PE      -0.019800
  11078 H12       -23.1470   37.6050   -5.3270 hc      1847 PE      -0.019800
  11079 H21       -24.1570   37.5850   -7.5970 hc      1847 PE      -0.019800
  11080 H22       -25.5970   36.6250   -6.9770 hc      1847 PE      -0.019800
  11081 C1        -24.2270   37.5550   -5.5370 c3      1847 PE       0.039600
  11082 C2        -24.5270   36.8650   -6.8570 c3      1847 PE       0.039600
  11083 H11       -22.6770   35.8650   -7.2970 hc      1848 PE      -0.019800
  11084 H12       -23.7370   34.8650   -6.1770 hc      1848 PE      -0.019800
  11085 H21       -24.1670   35.2150   -9.1970 hc      1848 PE      -0.019800
  11086 H22       -25.3970   34.6450   -8.1270 hc      1848 PE      -0.019800
  11087 C1        -23.6870   35.5250   -7.0570 c3      1848 PE       0.039600
  11088 C2        -24.3070   34.7450   -8.2170 c3      1848 PE       0.039600
  11089 H11       -23.9870   32.7050   -7.4170 hc      1849 PE      -0.019800
  11090 H12       -24.5470   32.8150   -9.1070 hc      1849 PE      -0.019800
  11091 H21       -21.8270   33.9950   -8.7370 hc      1849 PE      -0.019800
  11092 H22       -22.4770   33.1950  -10.1370 hc      1849 PE      -0.019800
  11093 C1        -23.8870   33.2550   -8.3570 c3      1849 PE       0.039600
  11094 C2        -22.4270   33.1250   -9.0370 c3      1849 PE       0.039600
  11095 H11       -22.2070   31.6550   -7.6870 hc      1850 PE      -0.019800
  11096 H12       -22.2770   31.0250   -9.3870 hc      1850 PE      -0.019800
  11097 H21       -19.8770   32.5450   -7.9070 hc      1850 PE      -0.019800
  11098 H22       -19.8770   32.4350   -9.5470 hc      1850 PE      -0.019800
  11099 C1        -21.8570   31.7950   -8.7170 c3      1850 PE       0.039600
  11100 C2        -20.3570   31.9450   -8.6870 c3      1850 PE       0.039600
  11101 H11       -19.9270   30.0350   -7.7970 hc      1851 PE      -0.019800
  11102 H12       -20.2770   29.9250   -9.5170 hc      1851 PE      -0.019800
  11103 H21       -17.6870   31.1150   -8.3570 hc      1851 PE      -0.019800
  11104 H22       -18.1670   30.8950  -10.0970 hc      1851 PE      -0.019800
  11105 C1        -19.7570   30.5250   -8.7670 c3      1851 PE       0.039600
  11106 C2        -18.2670   30.5150   -9.0670 c3      1851 PE       0.039600
  11107 H11       -18.0570   28.7050   -8.0370 hc      1852 PE      -0.019800
  11108 H12       -18.1270   28.5950   -9.8470 hc      1852 PE      -0.019800
  11109 H21       -15.9570   29.5150   -7.8470 hc      1852 PE      -0.019800
  11110 H22       -15.9370   29.9850   -9.5970 hc      1852 PE      -0.019800
  11111 C1        -17.6870   29.1150   -8.9870 c3      1852 PE       0.039600
  11112 C2        -16.1770   29.2050   -8.8770 c3      1852 PE       0.039600
  11113 H11       -16.1170   27.1150   -8.7670 hc      1853 PE      -0.019800
  11114 H12       -15.6170   27.7250  -10.2370 hc      1853 PE      -0.019800
  11115 H21       -13.9270   28.2350   -7.7770 hc      1853 PE      -0.019800
  11116 H22       -13.4070   28.4650   -9.4270 hc      1853 PE      -0.019800
  11117 C1        -15.4870   27.9150   -9.1670 c3      1853 PE       0.039600
  11118 C2        -14.0170   27.8150   -8.7770 c3      1853 PE       0.039600
  11119 H11       -13.9570   25.8250   -8.1670 hc      1854 PE      -0.019800
  11120 H12       -13.7670   25.8250   -9.8170 hc      1854 PE      -0.019800
  11121 H21       -11.6970   27.0550   -7.9270 hc      1854 PE      -0.019800
  11122 H22       -11.4870   26.9250   -9.5870 hc      1854 PE      -0.019800
  11123 C1        -13.4570   26.4050   -8.9370 c3      1854 PE       0.039600
  11124 C2        -11.9570   26.3850   -8.7570 c3      1854 PE       0.039600
  11125 H11       -11.9370   24.3850   -7.8070 hc      1855 PE      -0.019800
  11126 H12       -11.6970   24.4050   -9.4870 hc      1855 PE      -0.019800
  11127 H21        -9.6770   25.5350   -7.3570 hc      1855 PE      -0.019800
  11128 H22        -9.2870   25.3250   -9.0670 hc      1855 PE      -0.019800
  11129 C1        -11.3870   24.9350   -8.5770 c3      1855 PE       0.039600
  11130 C2         -9.9270   24.9650   -8.2570 c3      1855 PE       0.039600
  11131 H11        -9.8470   22.9450   -7.2570 hc      1856 PE      -0.019800
  11132 H12        -9.7970   22.9050   -8.9470 hc      1856 PE      -0.019800
  11133 H21        -7.5270   23.8850   -7.2370 hc      1856 PE      -0.019800
  11134 H22        -7.3070   24.0150   -8.8070 hc      1856 PE      -0.019800
  11135 C1         -9.3870   23.4750   -8.0970 c3      1856 PE       0.039600
  11136 C2         -7.8570   23.3450   -8.1270 c3      1856 PE       0.039600
  11137 H11        -7.8670   21.4250   -7.3670 hc      1857 PE      -0.019800
  11138 H12        -7.5470   21.5250   -9.0970 hc      1857 PE      -0.019800
  11139 H21        -5.3670   22.4550   -7.1970 hc      1857 PE      -0.019800
  11140 H22        -5.2970   22.2550   -8.9470 hc      1857 PE      -0.019800
  11141 C1         -7.2770   21.9550   -8.1170 c3      1857 PE       0.039600
  11142 C2         -5.7370   21.8450   -8.0370 c3      1857 PE       0.039600
  11143 H11        -5.3270   20.2750   -6.9270 hc      1858 PE      -0.019800
  11144 H12        -5.8570   19.7150   -8.5870 hc      1858 PE      -0.019800
  11145 H21        -3.2470   20.7950   -7.7770 hc      1858 PE      -0.019800
  11146 H22        -3.6170   20.7650   -9.4970 hc      1858 PE      -0.019800
  11147 C1         -5.2470   20.4250   -8.0070 c3      1858 PE       0.039600
  11148 C2         -3.8670   20.2950   -8.5370 c3      1858 PE       0.039600
  11149 H11        -3.8970   18.2450   -7.6770 hc      1859 PE      -0.019800
  11150 H12        -3.8770   18.3350   -9.4670 hc      1859 PE      -0.019800
  11151 H21        -1.4770   19.2550   -7.7470 hc      1859 PE      -0.019800
  11152 H22        -1.5670   19.0050   -9.4770 hc      1859 PE      -0.019800
  11153 C1         -3.4870   18.7750   -8.5370 c3      1859 PE       0.039600
  11154 C2         -1.9870   18.6550   -8.5170 c3      1859 PE       0.039600
  11155 H11        -1.7470   16.7250   -7.5370 hc      1860 PE      -0.019800
  11156 H12        -2.1870   16.6650   -9.2270 hc      1860 PE      -0.019800
  11157 H21         0.4130   17.7650   -8.1670 hc      1860 PE      -0.019800
  11158 H22         0.3030   16.0450   -8.6270 hc      1860 PE      -0.019800
  11159 C1         -1.5770   17.2250   -8.5070 c3      1860 PE       0.039600
  11160 C2         -0.0770   17.0550   -8.8470 c3      1860 PE       0.039600
  11161 H11       -39.8570   -7.1950   -4.9370 hc      1861 PE      -0.019800
  11162 H12       -39.5470   -8.8950   -5.3070 hc      1861 PE      -0.019800
  11163 H21       -41.0970   -7.8650   -2.8470 hc      1861 PE      -0.019800
  11164 H22       -40.4070   -9.4750   -2.9470 hc      1861 PE      -0.019800
  11165 C1        -39.7170   -8.1850   -4.4870 c3      1861 PE       0.039600
  11166 C2        -40.8270   -8.6650   -3.5470 c3      1861 PE       0.039600
  11167 H11        37.6730   -8.6050   -5.1470 hc      1862 PE      -0.019800
  11168 H12        38.0330  -10.2150   -4.7470 hc      1862 PE      -0.019800
  11169 H21        36.5230   -8.2950   -2.9170 hc      1862 PE      -0.019800
  11170 H22        36.8130   -9.9950   -2.5670 hc      1862 PE      -0.019800
  11171 C1         37.9230   -9.2350   -4.2770 c3      1862 PE       0.039600
  11172 C2         36.6530   -9.2850   -3.3770 c3      1862 PE       0.039600
  11173 H11        35.2130   -8.9950   -5.1070 hc      1863 PE      -0.019800
  11174 H12        35.7130  -10.6750   -4.7470 hc      1863 PE      -0.019800
  11175 H21        33.8430   -8.9950   -3.0470 hc      1863 PE      -0.019800
  11176 H22        34.5430  -10.6750   -2.7170 hc      1863 PE      -0.019800
  11177 C1         35.4530   -9.7050   -4.2970 c3      1863 PE       0.039600
  11178 C2         34.2630   -9.9150   -3.4570 c3      1863 PE       0.039600
  11179 H11        32.8730  -10.0850   -5.2470 hc      1864 PE      -0.019800
  11180 H12        33.5430  -11.6450   -4.6570 hc      1864 PE      -0.019800
  11181 H21        31.6530   -9.6850   -3.2570 hc      1864 PE      -0.019800
  11182 H22        31.8730  -11.2050   -2.6170 hc      1864 PE      -0.019800
  11183 C1         33.1830  -10.6550   -4.3670 c3      1864 PE       0.039600
  11184 C2         31.8230  -10.7150   -3.5970 c3      1864 PE       0.039600
  11185 H11        30.5830  -10.9450   -5.4670 hc      1865 PE      -0.019800
  11186 H12        30.9330  -12.3950   -4.6770 hc      1865 PE      -0.019800
  11187 H21        29.1430  -10.3950   -3.2770 hc      1865 PE      -0.019800
  11188 H22        29.5630  -11.9850   -2.7370 hc      1865 PE      -0.019800
  11189 C1         30.6630  -11.3550   -4.4470 c3      1865 PE       0.039600
  11190 C2         29.3230  -11.4150   -3.6370 c3      1865 PE       0.039600
  11191 H11        27.9630  -11.3550   -5.3070 hc      1866 PE      -0.019800
  11192 H12        28.3730  -13.0050   -4.7270 hc      1866 PE      -0.019800
  11193 H21        26.5930  -10.8650   -3.4370 hc      1866 PE      -0.019800
  11194 H22        27.0630  -12.2950   -2.5570 hc      1866 PE      -0.019800
  11195 C1         28.1230  -11.9850   -4.4170 c3      1866 PE       0.039600
  11196 C2         26.8630  -11.9150   -3.5670 c3      1866 PE       0.039600
  11197 H11        25.5930  -12.3350   -5.4070 hc      1867 PE      -0.019800
  11198 H12        26.0230  -13.7450   -4.4470 hc      1867 PE      -0.019800
  11199 H21        24.0930  -11.3450   -3.8070 hc      1867 PE      -0.019800
  11200 H22        24.3230  -12.6750   -2.6670 hc      1867 PE      -0.019800
  11201 C1         25.7030  -12.6950   -4.3770 c3      1867 PE       0.039600
  11202 C2         24.2630  -12.4250   -3.7370 c3      1867 PE       0.039600
  11203 H11        23.2030  -13.1250   -5.4570 hc      1868 PE      -0.019800
  11204 H12        23.4630  -14.3650   -4.2470 hc      1868 PE      -0.019800
  11205 H21        21.6730  -11.9850   -3.6070 hc      1868 PE      -0.019800
  11206 H22        21.9430  -13.2650   -2.5770 hc      1868 PE      -0.019800
  11207 C1         23.2030  -13.3050   -4.3770 c3      1868 PE       0.039600
  11208 C2         21.9030  -13.0550   -3.6570 c3      1868 PE       0.039600
  11209 H11        20.5430  -13.6550   -5.2570 hc      1869 PE      -0.019800
  11210 H12        20.9430  -14.9150   -4.2670 hc      1869 PE      -0.019800
  11211 H21        19.0530  -12.5950   -3.4670 hc      1869 PE      -0.019800
  11212 H22        19.3930  -14.0550   -2.4970 hc      1869 PE      -0.019800
  11213 C1         20.6530  -13.8550   -4.1870 c3      1869 PE       0.039600
  11214 C2         19.3130  -13.6550   -3.5170 c3      1869 PE       0.039600
  11215 H11        18.1730  -13.8450   -5.3570 hc      1870 PE      -0.019800
  11216 H12        18.2530  -15.2950   -4.4770 hc      1870 PE      -0.019800
  11217 H21        16.4930  -12.8550   -3.7270 hc      1870 PE      -0.019800
  11218 H22        16.7630  -14.2250   -2.5970 hc      1870 PE      -0.019800
  11219 C1         18.1030  -14.2250   -4.3270 c3      1870 PE       0.039600
  11220 C2         16.6930  -13.9250   -3.6470 c3      1870 PE       0.039600
  11221 H11        15.5030  -14.1750   -5.2770 hc      1871 PE      -0.019800
  11222 H12        15.7630  -15.7550   -4.4970 hc      1871 PE      -0.019800
  11223 H21        14.1230  -13.6250   -3.0170 hc      1871 PE      -0.019800
  11224 H22        14.2330  -15.4450   -2.8970 hc      1871 PE      -0.019800
  11225 C1         15.5430  -14.7050   -4.3170 c3      1871 PE       0.039600
  11226 C2         14.1730  -14.5650   -3.5670 c3      1871 PE       0.039600
  11227 H11        13.0030  -13.8950   -5.1770 hc      1872 PE      -0.019800
  11228 H12        13.0230  -15.6750   -5.0370 hc      1872 PE      -0.019800
  11229 H21        11.2630  -13.5850   -3.6070 hc      1872 PE      -0.019800
  11230 H22        11.5530  -15.0650   -2.7370 hc      1872 PE      -0.019800
  11231 C1         12.9330  -14.7350   -4.4770 c3      1872 PE       0.039600
  11232 C2         11.5530  -14.6350   -3.7470 c3      1872 PE       0.039600
  11233 H11        10.3030  -14.5650   -5.4870 hc      1873 PE      -0.019800
  11234 H12        10.7830  -16.2050   -4.9570 hc      1873 PE      -0.019800
  11235 H21         8.8830  -14.3150   -3.4970 hc      1873 PE      -0.019800
  11236 H22         9.3030  -16.0150   -2.9670 hc      1873 PE      -0.019800
  11237 C1         10.4530  -15.2150   -4.6170 c3      1873 PE       0.039600
  11238 C2          9.1830  -15.3250   -3.8170 c3      1873 PE       0.039600
  11239 H11         7.8230  -15.1650   -5.5270 hc      1874 PE      -0.019800
  11240 H12         8.2430  -16.8750   -4.9970 hc      1874 PE      -0.019800
  11241 H21         6.6630  -15.0650   -3.2070 hc      1874 PE      -0.019800
  11242 H22         6.8730  -16.7350   -3.0570 hc      1874 PE      -0.019800
  11243 C1          8.0230  -15.8450   -4.6970 c3      1874 PE       0.039600
  11244 C2          6.7130  -15.9750   -3.8270 c3      1874 PE       0.039600
  11245 H11         5.3030  -15.5550   -5.4570 hc      1875 PE      -0.019800
  11246 H12         5.5430  -17.2650   -5.0770 hc      1875 PE      -0.019800
  11247 H21         4.1230  -15.3350   -3.1270 hc      1875 PE      -0.019800
  11248 H22         4.4230  -17.0850   -3.0870 hc      1875 PE      -0.019800
  11249 C1          5.4430  -16.2650   -4.6270 c3      1875 PE       0.039600
  11250 C2          4.2030  -16.2450   -3.7470 c3      1875 PE       0.039600
  11251 H11         2.9230  -15.6150   -5.3370 hc      1876 PE      -0.019800
  11252 H12         3.1530  -17.3850   -5.1970 hc      1876 PE      -0.019800
  11253 H21         1.4630  -15.7350   -3.1670 hc      1876 PE      -0.019800
  11254 H22         1.6730  -17.4550   -3.1170 hc      1876 PE      -0.019800
  11255 C1          2.9930  -16.4550   -4.6370 c3      1876 PE       0.039600
  11256 C2          1.6330  -16.6050   -3.8170 c3      1876 PE       0.039600
  11257 H11         0.4030  -15.9650   -5.4570 hc      1877 PE      -0.019800
  11258 H12         0.4330  -17.6050   -5.3070 hc      1877 PE      -0.019800
  11259 H21        -1.2370  -15.5950   -3.8570 hc      1877 PE      -0.019800
  11260 H22        -0.6870  -17.1550   -2.9570 hc      1877 PE      -0.019800
  11261 C1          0.3930  -16.7250   -4.6670 c3      1877 PE       0.039600
  11262 C2         -0.9370  -16.6550   -3.8970 c3      1877 PE       0.039600
  11263 H11        -2.1370  -17.2550   -5.6770 hc      1878 PE      -0.019800
  11264 H12        -1.6270  -18.4950   -4.6670 hc      1878 PE      -0.019800
  11265 H21        -3.7070  -16.3750   -3.8370 hc      1878 PE      -0.019800
  11266 H22        -3.2470  -17.7250   -2.8370 hc      1878 PE      -0.019800
  11267 C1         -2.0570  -17.4850   -4.6070 c3      1878 PE       0.039600
  11268 C2         -3.3970  -17.4250   -3.8770 c3      1878 PE       0.039600
  11269 H11        -4.6770  -17.7550   -5.6170 hc      1879 PE      -0.019800
  11270 H12        -4.3870  -19.2150   -4.6670 hc      1879 PE      -0.019800
  11271 H21        -6.0870  -16.7550   -3.8770 hc      1879 PE      -0.019800
  11272 H22        -5.8370  -18.2150   -2.8170 hc      1879 PE      -0.019800
  11273 C1         -4.5770  -18.1350   -4.5870 c3      1879 PE       0.039600
  11274 C2         -5.8870  -17.8350   -3.8470 c3      1879 PE       0.039600
  11275 H11        -7.0670  -17.9450   -5.6070 hc      1880 PE      -0.019800
  11276 H12        -6.8770  -19.5150   -4.9170 hc      1880 PE      -0.019800
  11277 H21        -8.6370  -17.0750   -3.9970 hc      1880 PE      -0.019800
  11278 H22        -8.5870  -18.3450   -2.9070 hc      1880 PE      -0.019800
  11279 C1         -7.0970  -18.4650   -4.6470 c3      1880 PE       0.039600
  11280 C2         -8.5070  -18.1650   -3.9870 c3      1880 PE       0.039600
  11281 H11        -9.9170  -18.2550   -5.6370 hc      1881 PE      -0.019800
  11282 H12        -9.6270  -19.7550   -5.0670 hc      1881 PE      -0.019800
  11283 H21       -11.0570  -17.5750   -3.4070 hc      1881 PE      -0.019800
  11284 H22       -10.8670  -19.3350   -2.9270 hc      1881 PE      -0.019800
  11285 C1         -9.7170  -18.7350   -4.6670 c3      1881 PE       0.039600
  11286 C2        -10.9370  -18.6050   -3.7470 c3      1881 PE       0.039600
  11287 H11       -12.4970  -18.3150   -5.2970 hc      1882 PE      -0.019800
  11288 H12       -12.0770  -20.0050   -4.9470 hc      1882 PE      -0.019800
  11289 H21       -13.8070  -17.8950   -3.4470 hc      1882 PE      -0.019800
  11290 H22       -13.2770  -19.4350   -2.6070 hc      1882 PE      -0.019800
  11291 C1        -12.2570  -19.0250   -4.4970 c3      1882 PE       0.039600
  11292 C2        -13.5270  -18.9450   -3.5570 c3      1882 PE       0.039600
  11293 H11       -14.9670  -19.4750   -5.1770 hc      1883 PE      -0.019800
  11294 H12       -14.2770  -20.8050   -4.3070 hc      1883 PE      -0.019800
  11295 H21       -16.1670  -18.8850   -2.9170 hc      1883 PE      -0.019800
  11296 H22       -15.7370  -20.5250   -2.3470 hc      1883 PE      -0.019800
  11297 C1        -14.7170  -19.8150   -4.1570 c3      1883 PE       0.039600
  11298 C2        -15.9270  -19.9050   -3.2270 c3      1883 PE       0.039600
  11299 H11       -17.4670  -19.7450   -4.7170 hc      1884 PE      -0.019800
  11300 H12       -17.0070  -21.4350   -4.4470 hc      1884 PE      -0.019800
  11301 H21       -18.1370  -20.0150   -2.0670 hc      1884 PE      -0.019800
  11302 H22       -18.2370  -21.6850   -2.3770 hc      1884 PE      -0.019800
  11303 C1        -17.2070  -20.4850   -3.9470 c3      1884 PE       0.039600
  11304 C2        -18.3570  -20.7150   -2.8770 c3      1884 PE       0.039600
  11305 H11       -19.8970  -19.6250   -3.7570 hc      1885 PE      -0.019800
  11306 H12       -19.9070  -21.3150   -4.3170 hc      1885 PE      -0.019800
  11307 H21       -20.7370  -20.4450   -1.5070 hc      1885 PE      -0.019800
  11308 H22       -20.8270  -22.0750   -2.2870 hc      1885 PE      -0.019800
  11309 C1        -19.7670  -20.6750   -3.4470 c3      1885 PE       0.039600
  11310 C2        -20.8970  -20.9950   -2.4470 c3      1885 PE       0.039600
  11311 H11       -22.2470  -19.5350   -3.3270 hc      1886 PE      -0.019800
  11312 H12       -22.5670  -21.1050   -3.8670 hc      1886 PE      -0.019800
  11313 H21       -23.3570  -20.1150   -0.9970 hc      1886 PE      -0.019800
  11314 H22       -23.3270  -21.7950   -1.4770 hc      1886 PE      -0.019800
  11315 C1        -22.3070  -20.5650   -2.9470 c3      1886 PE       0.039600
  11316 C2        -23.4570  -20.7750   -1.8670 c3      1886 PE       0.039600
  11317 H11       -25.1770  -19.7150   -2.7270 hc      1887 PE      -0.019800
  11318 H12       -25.0670  -21.5050   -3.2170 hc      1887 PE      -0.019800
  11319 H21       -25.8470  -20.2750   -0.5770 hc      1887 PE      -0.019800
  11320 H22       -25.7070  -21.9650   -0.8470 hc      1887 PE      -0.019800
  11321 C1        -24.9670  -20.7550   -2.4270 c3      1887 PE       0.039600
  11322 C2        -26.0070  -21.0350   -1.3570 c3      1887 PE       0.039600
  11323 H11       -27.9270  -22.1550   -1.6370 hc      1888 PE      -0.019800
  11324 H12       -28.0670  -20.5250   -1.0270 hc      1888 PE      -0.019800
  11325 H21       -27.3370  -21.2350   -3.9770 hc      1888 PE      -0.019800
  11326 H22       -27.3870  -19.6050   -3.3570 hc      1888 PE      -0.019800
  11327 C1        -27.5370  -21.1450   -1.7570 c3      1888 PE       0.039600
  11328 C2        -27.7870  -20.6050   -3.1970 c3      1888 PE       0.039600
  11329 H11       -29.7370  -21.5050   -3.6770 hc      1889 PE      -0.019800
  11330 H12       -29.9270  -20.4150   -2.4670 hc      1889 PE      -0.019800
  11331 H21       -29.0370  -19.4050   -5.3670 hc      1889 PE      -0.019800
  11332 H22       -29.4070  -18.3650   -4.1370 hc      1889 PE      -0.019800
  11333 C1        -29.3770  -20.4950   -3.4170 c3      1889 PE       0.039600
  11334 C2        -29.6770  -19.3750   -4.4770 c3      1889 PE       0.039600
  11335 H11       -31.5270  -20.2950   -5.1170 hc      1890 PE      -0.019800
  11336 H12       -31.6970  -19.1550   -3.8170 hc      1890 PE      -0.019800
  11337 H21       -32.5770  -17.9850   -5.6770 hc      1890 PE      -0.019800
  11338 H22       -31.1870  -18.4350   -6.7170 hc      1890 PE      -0.019800
  11339 C1        -31.1870  -19.3150   -4.7770 c3      1890 PE       0.039600
  11340 C2        -31.4870  -18.0950   -5.7170 c3      1890 PE       0.039600
  11341 H11       -34.4570   -2.1750   -4.1270 hc      1891 PE      -0.019800
  11342 H12       -33.2870   -3.1450   -3.0470 hc      1891 PE      -0.019800
  11343 H21       -35.6870   -3.8850   -4.7370 hc      1891 PE      -0.019800
  11344 H22       -35.5270   -4.2950   -3.0370 hc      1891 PE      -0.019800
  11345 C1        -33.9470   -3.1250   -3.9270 c3      1891 PE       0.039600
  11346 C2        -34.9670   -4.2150   -3.9770 c3      1891 PE       0.039600
  11347 H11       -33.8370   -5.6250   -5.2470 hc      1892 PE      -0.019800
  11348 H12       -33.7070   -5.8750   -3.4770 hc      1892 PE      -0.019800
  11349 H21       -35.9370   -6.5550   -5.4670 hc      1892 PE      -0.019800
  11350 H22       -36.3070   -6.3450   -3.7770 hc      1892 PE      -0.019800
  11351 C1        -34.3770   -5.5750   -4.2870 c3      1892 PE       0.039600
  11352 C2        -35.4970   -6.6350   -4.4570 c3      1892 PE       0.039600
  11353 H11       -34.1970   -8.4350   -4.8870 hc      1893 PE      -0.019800
  11354 H12       -34.9770   -8.3450   -3.2770 hc      1893 PE      -0.019800
  11355 H21       -36.4870   -8.9650   -5.8170 hc      1893 PE      -0.019800
  11356 H22       -37.1570   -8.9350   -4.2370 hc      1893 PE      -0.019800
  11357 C1        -35.1170   -8.1650   -4.3470 c3      1893 PE       0.039600
  11358 C2        -36.2170   -9.1250   -4.7670 c3      1893 PE       0.039600
  11359 H11       -35.0170  -10.6050   -5.5270 hc      1894 PE      -0.019800
  11360 H12       -35.2370  -10.9150   -3.7770 hc      1894 PE      -0.019800
  11361 H21       -36.1770  -12.6350   -5.2970 hc      1894 PE      -0.019800
  11362 H22       -37.1570  -11.4650   -6.0770 hc      1894 PE      -0.019800
  11363 C1        -35.7470  -10.6350   -4.7070 c3      1894 PE       0.039600
  11364 C2        -36.7370  -11.7150   -5.0970 c3      1894 PE       0.039600
  11365 H11       -37.5370  -12.5350   -3.2070 hc      1895 PE      -0.019800
  11366 H12       -38.3670  -11.1950   -3.8070 hc      1895 PE      -0.019800
  11367 H21       -38.6870  -14.0050   -4.9770 hc      1895 PE      -0.019800
  11368 H22       -39.3270  -12.5750   -5.7570 hc      1895 PE      -0.019800
  11369 C1        -37.9070  -12.1250   -4.1570 c3      1895 PE       0.039600
  11370 C2        -39.0570  -12.9950   -4.7770 c3      1895 PE       0.039600
  11371 H11        39.8130  -13.6350   -2.9170 hc      1896 PE      -0.019800
  11372 H12        39.3530  -11.9950   -3.5970 hc      1896 PE      -0.019800
  11373 H21        38.7330  -14.5150   -5.0170 hc      1896 PE      -0.019800
  11374 H22        38.4730  -12.8750   -5.5570 hc      1896 PE      -0.019800
  11375 C1         39.7430  -12.9950   -3.8070 c3      1896 PE       0.039600
  11376 C2         38.5730  -13.4950   -4.6470 c3      1896 PE       0.039600
  11377 H11        37.3330  -14.0850   -2.9070 hc      1897 PE      -0.019800
  11378 H12        37.0430  -12.4350   -3.5370 hc      1897 PE      -0.019800
  11379 H21        36.3230  -14.8450   -5.2370 hc      1897 PE      -0.019800
  11380 H22        35.8030  -13.0950   -5.2770 hc      1897 PE      -0.019800
  11381 C1         37.2930  -13.4750   -3.8170 c3      1897 PE       0.039600
  11382 C2         36.0330  -13.9550   -4.6470 c3      1897 PE       0.039600
  11383 H11        35.0830  -14.8850   -2.9970 hc      1898 PE      -0.019800
  11384 H12        34.3930  -13.3350   -3.4370 hc      1898 PE      -0.019800
  11385 H21        33.6930  -15.8050   -5.1670 hc      1898 PE      -0.019800
  11386 H22        33.3030  -14.0950   -5.3570 hc      1898 PE      -0.019800
  11387 C1         34.7830  -14.2750   -3.8570 c3      1898 PE       0.039600
  11388 C2         33.5730  -14.8650   -4.6270 c3      1898 PE       0.039600
  11389 H11        32.5630  -16.0150   -3.0870 hc      1899 PE      -0.019800
  11390 H12        32.0930  -14.3550   -2.9970 hc      1899 PE      -0.019800
  11391 H21        31.3130  -16.0650   -5.2970 hc      1899 PE      -0.019800
  11392 H22        30.6730  -14.4650   -5.1470 hc      1899 PE      -0.019800
  11393 C1         32.3030  -15.1550   -3.7170 c3      1899 PE       0.039600
  11394 C2         31.0130  -15.3250   -4.5470 c3      1899 PE       0.039600
  11395 H11        30.1430  -16.6150   -3.0370 hc      1900 PE      -0.019800
  11396 H12        29.7030  -14.8950   -3.0570 hc      1900 PE      -0.019800
  11397 H21        28.8530  -17.0350   -5.0970 hc      1900 PE      -0.019800
  11398 H22        28.4930  -15.3950   -5.3370 hc      1900 PE      -0.019800
  11399 C1         29.8830  -15.7750   -3.6870 c3      1900 PE       0.039600
  11400 C2         28.6130  -16.1250   -4.5270 c3      1900 PE       0.039600
  11401 H11        27.5930  -17.2150   -2.9470 hc      1901 PE      -0.019800
  11402 H12        27.0130  -15.5650   -3.1070 hc      1901 PE      -0.019800
  11403 H21        26.6730  -17.8250   -5.1070 hc      1901 PE      -0.019800
  11404 H22        26.0630  -16.1750   -5.3470 hc      1901 PE      -0.019800
  11405 C1         27.3930  -16.4150   -3.6770 c3      1901 PE       0.039600
  11406 C2         26.2830  -16.9350   -4.5970 c3      1901 PE       0.039600
  11407 H11        25.1830  -18.1050   -3.1770 hc      1902 PE      -0.019800
  11408 H12        24.7930  -16.4650   -3.0370 hc      1902 PE      -0.019800
  11409 H21        23.9030  -18.5150   -5.1770 hc      1902 PE      -0.019800
  11410 H22        23.6130  -16.7050   -5.2570 hc      1902 PE      -0.019800
  11411 C1         25.0230  -17.2150   -3.7970 c3      1902 PE       0.039600
  11412 C2         23.8030  -17.5850   -4.6170 c3      1902 PE       0.039600
  11413 H11        22.5630  -18.4850   -3.0670 hc      1903 PE      -0.019800
  11414 H12        22.5530  -16.6050   -3.2270 hc      1903 PE      -0.019800
  11415 H21        21.5030  -18.8750   -4.9870 hc      1903 PE      -0.019800
  11416 H22        21.2130  -17.1550   -5.4170 hc      1903 PE      -0.019800
  11417 C1         22.5930  -17.5950   -3.7170 c3      1903 PE       0.039600
  11418 C2         21.2830  -17.8750   -4.5970 c3      1903 PE       0.039600
  11419 H11        20.0730  -18.3450   -2.7970 hc      1904 PE      -0.019800
  11420 H12        19.7930  -16.7350   -3.4670 hc      1904 PE      -0.019800
  11421 H21        18.8330  -19.1250   -4.9470 hc      1904 PE      -0.019800
  11422 H22        18.4630  -17.5350   -5.3370 hc      1904 PE      -0.019800
  11423 C1         19.9930  -17.7850   -3.7370 c3      1904 PE       0.039600
  11424 C2         18.6630  -18.1550   -4.4570 c3      1904 PE       0.039600
  11425 H11        17.5430  -19.0250   -2.8770 hc      1905 PE      -0.019800
  11426 H12        17.1730  -17.3150   -3.1670 hc      1905 PE      -0.019800
  11427 H21        16.4330  -19.6050   -5.0370 hc      1905 PE      -0.019800
  11428 H22        16.0430  -17.9350   -5.2870 hc      1905 PE      -0.019800
  11429 C1         17.4030  -18.2650   -3.6570 c3      1905 PE       0.039600
  11430 C2         16.2030  -18.6750   -4.4970 c3      1905 PE       0.039600
  11431 H11        15.0730  -19.6650   -2.8770 hc      1906 PE      -0.019800
  11432 H12        14.5830  -17.9250   -3.0970 hc      1906 PE      -0.019800
  11433 H21        13.9930  -20.4050   -4.9170 hc      1906 PE      -0.019800
  11434 H22        13.8730  -18.7550   -5.4170 hc      1906 PE      -0.019800
  11435 C1         14.9330  -18.8450   -3.5870 c3      1906 PE       0.039600
  11436 C2         13.7830  -19.3950   -4.5270 c3      1906 PE       0.039600
  11437 H11        12.4930  -19.8750   -2.8870 hc      1907 PE      -0.019800
  11438 H12        12.3530  -18.2450   -3.4170 hc      1907 PE      -0.019800
  11439 H21        11.3230  -20.5450   -5.1270 hc      1907 PE      -0.019800
  11440 H22        11.1430  -18.9350   -5.5970 hc      1907 PE      -0.019800
  11441 C1         12.4230  -19.2750   -3.8070 c3      1907 PE       0.039600
  11442 C2         11.1730  -19.5550   -4.6870 c3      1907 PE       0.039600
  11443 H11         9.7230  -20.2750   -3.1870 hc      1908 PE      -0.019800
  11444 H12         9.5730  -18.5150   -3.5270 hc      1908 PE      -0.019800
  11445 H21         8.9430  -20.9150   -5.1970 hc      1908 PE      -0.019800
  11446 H22         8.5630  -19.2950   -5.8570 hc      1908 PE      -0.019800
  11447 C1          9.7830  -19.4950   -3.9670 c3      1908 PE       0.039600
  11448 C2          8.5930  -19.8950   -4.9470 c3      1908 PE       0.039600
  11449 H11         7.4430  -20.6050   -3.2770 hc      1909 PE      -0.019800
  11450 H12         6.9730  -19.0250   -3.8170 hc      1909 PE      -0.019800
  11451 H21         6.3630  -21.6550   -5.0770 hc      1909 PE      -0.019800
  11452 H22         6.0530  -19.9350   -5.8670 hc      1909 PE      -0.019800
  11453 C1          7.2830  -20.0050   -4.1870 c3      1909 PE       0.039600
  11454 C2          6.1530  -20.5750   -4.9870 c3      1909 PE       0.039600
  11455 H11         4.9030  -21.1650   -3.2670 hc      1910 PE      -0.019800
  11456 H12         4.8130  -19.6250   -3.5870 hc      1910 PE      -0.019800
  11457 H21         3.5630  -21.7850   -5.6070 hc      1910 PE      -0.019800
  11458 H22         3.4230  -20.0950   -5.7870 hc      1910 PE      -0.019800
  11459 C1          4.8330  -20.5550   -4.1670 c3      1910 PE       0.039600
  11460 C2          3.5130  -20.8650   -5.0170 c3      1910 PE       0.039600
  11461 H11         2.4230  -22.0950   -3.6170 hc      1911 PE      -0.019800
  11462 H12         2.0730  -20.3250   -3.4970 hc      1911 PE      -0.019800
  11463 H21         1.2030  -22.2850   -5.7070 hc      1911 PE      -0.019800
  11464 H22         1.0430  -20.5550   -5.7070 hc      1911 PE      -0.019800
  11465 C1          2.3030  -21.1550   -4.1770 c3      1911 PE       0.039600
  11466 C2          1.0130  -21.4350   -5.0370 c3      1911 PE       0.039600
  11467 H11        -0.1870  -22.2850   -3.5470 hc      1912 PE      -0.019800
  11468 H12        -0.3370  -20.5350   -3.6770 hc      1912 PE      -0.019800
  11469 H21        -1.3970  -22.8250   -5.6470 hc      1912 PE      -0.019800
  11470 H22        -1.6670  -21.1450   -5.9170 hc      1912 PE      -0.019800
  11471 C1         -0.2670  -21.4550   -4.2670 c3      1912 PE       0.039600
  11472 C2         -1.5370  -21.8750   -5.1070 c3      1912 PE       0.039600
  11473 H11        -2.6470  -22.7150   -3.4470 hc      1913 PE      -0.019800
  11474 H12        -2.7870  -20.9950   -3.6570 hc      1913 PE      -0.019800
  11475 H21        -3.9370  -22.9550   -5.7670 hc      1913 PE      -0.019800
  11476 H22        -4.3270  -21.2350   -5.6170 hc      1913 PE      -0.019800
  11477 C1         -2.7270  -21.9350   -4.2270 c3      1913 PE       0.039600
  11478 C2         -4.0970  -22.1450   -5.0370 c3      1913 PE       0.039600
  11479 H11        -5.0270  -22.9850   -3.3670 hc      1914 PE      -0.019800
  11480 H12        -5.5670  -21.3350   -3.7270 hc      1914 PE      -0.019800
  11481 H21        -6.4470  -23.7050   -5.5170 hc      1914 PE      -0.019800
  11482 H22        -6.7870  -21.9850   -5.6670 hc      1914 PE      -0.019800
  11483 C1         -5.3470  -22.3150   -4.1770 c3      1914 PE       0.039600
  11484 C2         -6.6070  -22.7850   -4.9370 c3      1914 PE       0.039600
  11485 H11        -7.4270  -23.3750   -3.0270 hc      1915 PE      -0.019800
  11486 H12        -8.1170  -21.8550   -3.6170 hc      1915 PE      -0.019800
  11487 H21        -8.7670  -24.4950   -4.8670 hc      1915 PE      -0.019800
  11488 H22        -9.1470  -22.9350   -5.5970 hc      1915 PE      -0.019800
  11489 C1         -7.7570  -22.8450   -3.9370 c3      1915 PE       0.039600
  11490 C2         -8.9770  -23.4450   -4.6370 c3      1915 PE       0.039600
  11491 H11       -10.2670  -24.3250   -3.0770 hc      1916 PE      -0.019800
  11492 H12       -10.4770  -22.6150   -3.1370 hc      1916 PE      -0.019800
  11493 H21       -11.4570  -24.6450   -5.1070 hc      1916 PE      -0.019800
  11494 H22       -11.6670  -22.8950   -5.4770 hc      1916 PE      -0.019800
  11495 C1        -10.2970  -23.4750   -3.7770 c3      1916 PE       0.039600
  11496 C2        -11.6070  -23.6450   -4.6770 c3      1916 PE       0.039600
  11497 H11       -12.9370  -24.2750   -3.0570 hc      1917 PE      -0.019800
  11498 H12       -13.0870  -22.5850   -3.5170 hc      1917 PE      -0.019800
  11499 H21       -13.9270  -24.9750   -5.2070 hc      1917 PE      -0.019800
  11500 H22       -14.3470  -23.3150   -5.6270 hc      1917 PE      -0.019800
  11501 C1        -12.9170  -23.5950   -3.9170 c3      1917 PE       0.039600
  11502 C2        -14.1770  -23.9950   -4.7770 c3      1917 PE       0.039600
  11503 H11       -15.3870  -24.7250   -3.0470 hc      1918 PE      -0.019800
  11504 H12       -15.6670  -23.0650   -3.5870 hc      1918 PE      -0.019800
  11505 H21       -16.5070  -25.5450   -5.1170 hc      1918 PE      -0.019800
  11506 H22       -17.0770  -24.0450   -5.6170 hc      1918 PE      -0.019800
  11507 C1        -15.4670  -24.0850   -3.9370 c3      1918 PE       0.039600
  11508 C2        -16.7570  -24.5550   -4.7070 c3      1918 PE       0.039600
  11509 H11       -17.7370  -25.3150   -2.9470 hc      1919 PE      -0.019800
  11510 H12       -18.2470  -23.7250   -3.3470 hc      1919 PE      -0.019800
  11511 H21       -19.0870  -26.1050   -4.8870 hc      1919 PE      -0.019800
  11512 H22       -19.4670  -24.4350   -5.3370 hc      1919 PE      -0.019800
  11513 C1        -17.9970  -24.6950   -3.8070 c3      1919 PE       0.039600
  11514 C2        -19.2570  -25.0950   -4.4970 c3      1919 PE       0.039600
  11515 H11       -20.3370  -26.1050   -2.8870 hc      1920 PE      -0.019800
  11516 H12       -20.5270  -24.3450   -2.9370 hc      1920 PE      -0.019800
  11517 H21       -22.4870  -25.9850   -3.5370 hc      1920 PE      -0.019800
  11518 H22       -21.6270  -26.2250   -5.0670 hc      1920 PE      -0.019800
  11519 C1        -20.4570  -25.2450   -3.5670 c3      1920 PE       0.039600
  11520 C2        -21.8070  -25.5150   -4.2570 c3      1920 PE       0.039600
  11521 H11        31.6730  -33.5350   -8.2770 hc      1921 PE      -0.019800
  11522 H12        31.7130  -32.0250   -9.2170 hc      1921 PE      -0.019800
  11523 H21        30.1030  -31.0450   -7.8670 hc      1921 PE      -0.019800
  11524 H22        30.1030  -32.3350   -6.6570 hc      1921 PE      -0.019800
  11525 C1         31.6130  -32.4350   -8.1970 c3      1921 PE       0.039600
  11526 C2         30.1730  -32.1250   -7.7270 c3      1921 PE       0.039600
  11527 H11        29.0130  -32.3050   -9.5970 hc      1922 PE      -0.019800
  11528 H12        29.1430  -33.8550   -8.8070 hc      1922 PE      -0.019800
  11529 H21        27.6030  -31.4250   -7.6770 hc      1922 PE      -0.019800
  11530 H22        27.7330  -32.9250   -6.8370 hc      1922 PE      -0.019800
  11531 C1         29.0530  -32.7850   -8.6070 c3      1922 PE       0.039600
  11532 C2         27.7730  -32.4950   -7.8470 c3      1922 PE       0.039600
  11533 H11        26.4630  -32.7050   -9.6870 hc      1923 PE      -0.019800
  11534 H12        26.7730  -34.0950   -8.9270 hc      1923 PE      -0.019800
  11535 H21        25.2930  -31.9350   -7.4270 hc      1923 PE      -0.019800
  11536 H22        25.4530  -33.6350   -6.9270 hc      1923 PE      -0.019800
  11537 C1         26.5730  -33.0550   -8.6570 c3      1923 PE       0.039600
  11538 C2         25.3130  -32.9750   -7.7870 c3      1923 PE       0.039600
  11539 H11        23.8730  -32.6050   -9.3970 hc      1924 PE      -0.019800
  11540 H12        24.3530  -34.2750   -9.0770 hc      1924 PE      -0.019800
  11541 H21        22.8230  -32.5650   -6.9270 hc      1924 PE      -0.019800
  11542 H22        22.9830  -34.2850   -6.9170 hc      1924 PE      -0.019800
  11543 C1         24.1130  -33.3150   -8.6070 c3      1924 PE       0.039600
  11544 C2         22.8930  -33.4250   -7.5970 c3      1924 PE       0.039600
  11545 H11        21.4930  -32.9550   -9.2970 hc      1925 PE      -0.019800
  11546 H12        21.5130  -34.6750   -8.8070 hc      1925 PE      -0.019800
  11547 H21        19.9630  -32.5150   -7.2370 hc      1925 PE      -0.019800
  11548 H22        20.4730  -34.0850   -6.7470 hc      1925 PE      -0.019800
  11549 C1         21.5330  -33.6450   -8.4470 c3      1925 PE       0.039600
  11550 C2         20.1830  -33.5150   -7.6370 c3      1925 PE       0.039600
  11551 H11        18.9030  -33.8850   -9.3870 hc      1926 PE      -0.019800
  11552 H12        19.2430  -35.3650   -8.4270 hc      1926 PE      -0.019800
  11553 H21        17.5930  -33.1650   -7.2470 hc      1926 PE      -0.019800
  11554 H22        17.7030  -34.8050   -6.6870 hc      1926 PE      -0.019800
  11555 C1         18.9830  -34.2950   -8.3670 c3      1926 PE       0.039600
  11556 C2         17.6830  -34.1950   -7.5970 c3      1926 PE       0.039600
  11557 H11        16.4830  -34.1850   -9.4470 hc      1927 PE      -0.019800
  11558 H12        16.5130  -35.6750   -8.6070 hc      1927 PE      -0.019800
  11559 H21        14.9130  -33.4750   -7.3570 hc      1927 PE      -0.019800
  11560 H22        15.2030  -35.1550   -6.8370 hc      1927 PE      -0.019800
  11561 C1         16.4030  -34.5950   -8.4370 c3      1927 PE       0.039600
  11562 C2         15.0930  -34.4950   -7.7070 c3      1927 PE       0.039600
  11563 H11        13.9330  -34.5650   -9.5370 hc      1928 PE      -0.019800
  11564 H12        14.1230  -36.1650   -8.7570 hc      1928 PE      -0.019800
  11565 H21        12.3630  -33.9950   -7.5370 hc      1928 PE      -0.019800
  11566 H22        12.6730  -35.5950   -6.8370 hc      1928 PE      -0.019800
  11567 C1         13.9530  -35.0950   -8.5770 c3      1928 PE       0.039600
  11568 C2         12.6130  -35.0350   -7.7770 c3      1928 PE       0.039600
  11569 H11        11.0630  -34.9150   -9.2370 hc      1929 PE      -0.019800
  11570 H12        11.7530  -36.5550   -9.0670 hc      1929 PE      -0.019800
  11571 H21         9.6930  -34.9950   -7.2970 hc      1929 PE      -0.019800
  11572 H22        10.4030  -36.5050   -6.6570 hc      1929 PE      -0.019800
  11573 C1         11.3630  -35.6850   -8.5270 c3      1929 PE       0.039600
  11574 C2         10.1230  -35.9550   -7.5770 c3      1929 PE       0.039600
  11575 H11         8.8330  -36.4950   -9.2470 hc      1930 PE      -0.019800
  11576 H12         9.4430  -37.8750   -8.3870 hc      1930 PE      -0.019800
  11577 H21         7.4130  -35.9350   -7.2070 hc      1930 PE      -0.019800
  11578 H22         7.9430  -37.2150   -6.3570 hc      1930 PE      -0.019800
  11579 C1          9.0230  -36.8750   -8.2370 c3      1930 PE       0.039600
  11580 C2          7.7430  -36.9550   -7.4070 c3      1930 PE       0.039600
  11581 H11         6.6630  -37.7950   -9.0970 hc      1931 PE      -0.019800
  11582 H12         7.1230  -38.9250   -7.9270 hc      1931 PE      -0.019800
  11583 H21         4.8430  -36.7950   -7.5870 hc      1931 PE      -0.019800
  11584 H22         5.3130  -38.0750   -6.4270 hc      1931 PE      -0.019800
  11585 C1          6.6930  -37.9150   -8.0070 c3      1931 PE       0.039600
  11586 C2          5.2430  -37.8150   -7.4870 c3      1931 PE       0.039600
  11587 H11         4.5430  -38.6350   -9.3770 hc      1932 PE      -0.019800
  11588 H12         4.6230  -39.9050   -8.0870 hc      1932 PE      -0.019800
  11589 H21         2.4530  -37.7850   -8.2970 hc      1932 PE      -0.019800
  11590 H22         2.7230  -39.0150   -6.9970 hc      1932 PE      -0.019800
  11591 C1          4.3630  -38.8650   -8.3270 c3      1932 PE       0.039600
  11592 C2          2.8630  -38.7650   -8.0570 c3      1932 PE       0.039600
  11593 H11         2.0630   40.4850   -9.9770 hc      1933 PE      -0.019800
  11594 H12         2.5930   39.2250   -8.9370 hc      1933 PE      -0.019800
  11595 H21         0.9030   39.2550   -7.5470 hc      1933 PE      -0.019800
  11596 H22         0.4130   39.1850   -9.2170 hc      1933 PE      -0.019800
  11597 C1          2.1130   40.2050   -8.9170 c3      1933 PE       0.039600
  11598 C2          0.7630   39.8750   -8.4370 c3      1933 PE       0.039600
  11599 H11         0.2830  -38.1850   -7.6170 hc      1934 PE      -0.019800
  11600 H12        -0.5570  -38.5250   -9.1670 hc      1934 PE      -0.019800
  11601 H21        -1.0970  -39.6950   -6.3670 hc      1934 PE      -0.019800
  11602 H22        -1.7970  -40.3250   -7.8470 hc      1934 PE      -0.019800
  11603 C1         -0.2070  -38.9650   -8.2270 c3      1934 PE       0.039600
  11604 C2         -1.3970  -39.4050   -7.3870 c3      1934 PE       0.039600
  11605 H11        -2.7770  -38.1850   -8.4670 hc      1935 PE      -0.019800
  11606 H12        -3.5470  -38.7150   -7.0370 hc      1935 PE      -0.019800
  11607 H21        -2.9370  -36.1950   -7.0170 hc      1935 PE      -0.019800
  11608 H22        -1.2970  -36.4850   -7.1070 hc      1935 PE      -0.019800
  11609 C1         -2.5770  -38.3350   -7.3970 c3      1935 PE       0.039600
  11610 C2         -2.2070  -36.9750   -6.7470 c3      1935 PE       0.039600
  11611 H11        -3.1670  -37.1450   -4.7270 hc      1936 PE      -0.019800
  11612 H12        -1.6470  -37.8750   -4.7770 hc      1936 PE      -0.019800
  11613 H21        -2.1670  -34.9750   -4.3870 hc      1936 PE      -0.019800
  11614 H22        -0.5770  -35.4250   -5.0670 hc      1936 PE      -0.019800
  11615 C1         -2.1770  -37.0050   -5.1770 c3      1936 PE       0.039600
  11616 C2         -1.4370  -35.7950   -4.4970 c3      1936 PE       0.039600
  11617 H11        -1.4170  -35.3950   -2.3670 hc      1937 PE      -0.019800
  11618 H12        -1.0870  -37.1250   -2.9070 hc      1937 PE      -0.019800
  11619 H21         0.8130  -34.7450   -2.9770 hc      1937 PE      -0.019800
  11620 H22         1.1730  -36.4750   -3.4670 hc      1937 PE      -0.019800
  11621 C1         -0.8970  -36.0550   -3.0670 c3      1937 PE       0.039600
  11622 C2          0.6030  -35.8050   -2.8070 c3      1937 PE       0.039600
  11623 H11         0.7330  -35.4250   -0.5870 hc      1938 PE      -0.019800
  11624 H12         0.6330  -37.0650   -1.0270 hc      1938 PE      -0.019800
  11625 H21         3.1230  -35.3950   -1.5570 hc      1938 PE      -0.019800
  11626 H22         2.9730  -37.0150   -2.1270 hc      1938 PE      -0.019800
  11627 C1          1.0730  -36.1250   -1.3670 c3      1938 PE       0.039600
  11628 C2          2.6230  -36.3450   -1.3270 c3      1938 PE       0.039600
  11629 H11         2.7430  -35.9150    0.6430 hc      1939 PE      -0.019800
  11630 H12         2.7530  -37.7250    0.2830 hc      1939 PE      -0.019800
  11631 H21         5.0530  -35.7750    0.0530 hc      1939 PE      -0.019800
  11632 H22         5.1030  -37.3850   -0.6770 hc      1939 PE      -0.019800
  11633 C1          3.1330  -36.7350    0.0330 c3      1939 PE       0.039600
  11634 C2          4.6530  -36.7850    0.1330 c3      1939 PE       0.039600
  11635 H11         4.6330  -36.9350    2.3230 hc      1940 PE      -0.019800
  11636 H12         4.6530  -38.4850    1.4930 hc      1940 PE      -0.019800
  11637 H21         6.7730  -36.3350    1.6330 hc      1940 PE      -0.019800
  11638 H22         7.1530  -37.9350    0.9030 hc      1940 PE      -0.019800
  11639 C1          5.0630  -37.4650    1.4730 c3      1940 PE       0.039600
  11640 C2          6.5730  -37.4150    1.6830 c3      1940 PE       0.039600
  11641 H11         6.6030  -37.3250    3.7430 hc      1941 PE      -0.019800
  11642 H12         6.7330  -38.9850    3.2430 hc      1941 PE      -0.019800
  11643 H21         8.8730  -36.8650    2.7430 hc      1941 PE      -0.019800
  11644 H22         9.0530  -38.6550    2.4630 hc      1941 PE      -0.019800
  11645 C1          7.0630  -37.9650    2.9830 c3      1941 PE       0.039600
  11646 C2          8.5830  -37.8750    3.0730 c3      1941 PE       0.039600
  11647 H11         8.8330  -37.2850    5.2530 hc      1942 PE      -0.019800
  11648 H12         8.5130  -38.9750    5.0330 hc      1942 PE      -0.019800
  11649 H21        10.7830  -39.1150    3.8030 hc      1942 PE      -0.019800
  11650 H22        10.8130  -38.8250    5.5830 hc      1942 PE      -0.019800
  11651 C1          9.0430  -38.1250    4.5730 c3      1942 PE       0.039600
  11652 C2         10.5330  -38.4150    4.6030 c3      1942 PE       0.039600
  11653 H11        11.3230  -36.9850    3.2230 hc      1943 PE      -0.019800
  11654 H12        11.2030  -36.3550    4.9330 hc      1943 PE      -0.019800
  11655 H21        12.8530  -38.6350    3.8530 hc      1943 PE      -0.019800
  11656 H22        13.0330  -38.1150    5.4530 hc      1943 PE      -0.019800
  11657 C1         11.4030  -37.2250    4.2930 c3      1943 PE       0.039600
  11658 C2         12.8430  -37.7150    4.4530 c3      1943 PE       0.039600
  11659 H11        13.8830  -36.5250    3.0730 hc      1944 PE      -0.019800
  11660 H12        13.9630  -35.9250    4.7930 hc      1944 PE      -0.019800
  11661 H21        15.4530  -38.4550    3.8530 hc      1944 PE      -0.019800
  11662 H22        15.4830  -37.7050    5.4730 hc      1944 PE      -0.019800
  11663 C1         14.0330  -36.7850    4.1230 c3      1944 PE       0.039600
  11664 C2         15.3830  -37.5050    4.4030 c3      1944 PE       0.039600
  11665 H11        16.5030  -36.1150    3.1430 hc      1945 PE      -0.019800
  11666 H12        16.5830  -35.7650    4.8330 hc      1945 PE      -0.019800
  11667 H21        17.9030  -38.2350    3.5930 hc      1945 PE      -0.019800
  11668 H22        18.0430  -37.7350    5.2430 hc      1945 PE      -0.019800
  11669 C1         16.5730  -36.5950    4.1230 c3      1945 PE       0.039600
  11670 C2         17.8330  -37.3450    4.2330 c3      1945 PE       0.039600
  11671 H11        18.8330  -35.8950    2.9330 hc      1946 PE      -0.019800
  11672 H12        19.1830  -35.5350    4.5930 hc      1946 PE      -0.019800
  11673 H21        20.3730  -38.1650    3.2630 hc      1946 PE      -0.019800
  11674 H22        20.7830  -37.4650    4.8030 hc      1946 PE      -0.019800
  11675 C1         19.0230  -36.3650    3.8930 c3      1946 PE       0.039600
  11676 C2         20.4030  -37.2050    3.8030 c3      1946 PE       0.039600
  11677 H11        21.2930  -36.1250    2.1430 hc      1947 PE      -0.019800
  11678 H12        21.4530  -35.3050    3.7430 hc      1947 PE      -0.019800
  11679 H21        23.1230  -37.5850    2.6830 hc      1947 PE      -0.019800
  11680 H22        23.0230  -37.2650    4.4330 hc      1947 PE      -0.019800
  11681 C1         21.4730  -36.2650    3.2130 c3      1947 PE       0.039600
  11682 C2         22.9330  -36.8150    3.4430 c3      1947 PE       0.039600
  11683 H11        23.8030  -35.3550    2.2730 hc      1948 PE      -0.019800
  11684 H12        23.7030  -34.8150    3.9230 hc      1948 PE      -0.019800
  11685 H21        25.6030  -37.0450    2.9930 hc      1948 PE      -0.019800
  11686 H22        25.3730  -36.4450    4.6730 hc      1948 PE      -0.019800
  11687 C1         23.9330  -35.6950    3.3130 c3      1948 PE       0.039600
  11688 C2         25.3430  -36.1850    3.6130 c3      1948 PE       0.039600
  11689 H11        26.4230  -34.5750    2.6330 hc      1949 PE      -0.019800
  11690 H12        26.0230  -34.2050    4.3130 hc      1949 PE      -0.019800
  11691 H21        28.1630  -36.2050    3.5130 hc      1949 PE      -0.019800
  11692 H22        27.5230  -35.9950    5.1430 hc      1949 PE      -0.019800
  11693 C1         26.3830  -35.0050    3.6430 c3      1949 PE       0.039600
  11694 C2         27.7430  -35.4650    4.2130 c3      1949 PE       0.039600
  11695 H11        29.1330  -34.0250    3.4630 hc      1950 PE      -0.019800
  11696 H12        28.3430  -33.5050    4.9930 hc      1950 PE      -0.019800
  11697 H21        29.7530  -34.8250    6.2430 hc      1950 PE      -0.019800
  11698 H22        30.9030  -34.3050    5.0030 hc      1950 PE      -0.019800
  11699 C1         28.7730  -34.3550    4.4430 c3      1950 PE       0.039600
  11700 C2         29.9830  -34.8950    5.1730 c3      1950 PE       0.039600
  11701 H11       -26.4670   -5.8550   -7.3770 hc      1951 PE      -0.019800
  11702 H12       -26.8770   -7.5550   -7.9770 hc      1951 PE      -0.019800
  11703 H21       -28.4870   -5.3750   -8.5770 hc      1951 PE      -0.019800
  11704 H22       -29.0570   -5.7950   -6.8770 hc      1951 PE      -0.019800
  11705 C1        -27.1970   -6.6750   -7.4070 c3      1951 PE       0.039600
  11706 C2        -28.5770   -6.1450   -7.7970 c3      1951 PE       0.039600
  11707 H11       -28.9770   -7.8250   -9.0570 hc      1952 PE      -0.019800
  11708 H12       -29.5470   -8.0250   -7.4170 hc      1952 PE      -0.019800
  11709 H21       -30.7470   -6.6350   -9.7570 hc      1952 PE      -0.019800
  11710 H22       -31.2070   -5.9850   -8.1970 hc      1952 PE      -0.019800
  11711 C1        -29.4970   -7.3050   -8.2370 c3      1952 PE       0.039600
  11712 C2        -30.9270   -6.9150   -8.7170 c3      1952 PE       0.039600
  11713 H11       -31.6470   -8.8450   -9.3170 hc      1953 PE      -0.019800
  11714 H12       -31.7470   -8.4050   -7.5370 hc      1953 PE      -0.019800
  11715 H21       -33.6970   -7.2650   -9.7670 hc      1953 PE      -0.019800
  11716 H22       -33.6470   -6.7950   -8.0970 hc      1953 PE      -0.019800
  11717 C1        -31.8970   -8.0750   -8.5770 c3      1953 PE       0.039600
  11718 C2        -33.3970   -7.6250   -8.7670 c3      1953 PE       0.039600
  11719 H11       -34.2370   -9.5450   -9.1770 hc      1954 PE      -0.019800
  11720 H12       -34.1470   -9.0450   -7.4770 hc      1954 PE      -0.019800
  11721 H21       -36.1270   -7.7550   -9.4470 hc      1954 PE      -0.019800
  11722 H22       -36.2770   -7.8350   -7.6470 hc      1954 PE      -0.019800
  11723 C1        -34.4070   -8.7050   -8.4870 c3      1954 PE       0.039600
  11724 C2        -35.9070   -8.3450   -8.5470 c3      1954 PE       0.039600
  11725 H11       -36.8070  -10.0950   -9.5970 hc      1955 PE      -0.019800
  11726 H12       -36.4470  -10.4150   -7.9170 hc      1955 PE      -0.019800
  11727 H21       -38.5970   -8.5950   -8.9270 hc      1955 PE      -0.019800
  11728 H22       -38.3270   -8.8650   -7.2170 hc      1955 PE      -0.019800
  11729 C1        -36.8270   -9.6450   -8.5970 c3      1955 PE       0.039600
  11730 C2        -38.2370   -9.3350   -8.2070 c3      1955 PE       0.039600
  11731 H11       -39.2570  -10.7950   -9.3670 hc      1956 PE      -0.019800
  11732 H12       -38.7970  -11.3950   -7.7970 hc      1956 PE      -0.019800
  11733 H21       -40.7670   -9.2150   -8.6770 hc      1956 PE      -0.019800
  11734 H22       -40.7870   -9.8050   -6.9470 hc      1956 PE      -0.019800
  11735 C1        -39.1870  -10.5050   -8.3170 c3      1956 PE       0.039600
  11736 C2        -40.6270  -10.0650   -8.0070 c3      1956 PE       0.039600
  11737 H11        38.5630  -11.7450   -9.0670 hc      1957 PE      -0.019800
  11738 H12        38.5830  -11.9450   -7.3570 hc      1957 PE      -0.019800
  11739 H21        36.6130  -10.0950   -8.9670 hc      1957 PE      -0.019800
  11740 H22        36.7230  -10.3950   -7.1970 hc      1957 PE      -0.019800
  11741 C1         38.3330  -11.2150   -8.1370 c3      1957 PE       0.039600
  11742 C2         36.8630  -10.8350   -8.1870 c3      1957 PE       0.039600
  11743 H11        36.4030  -12.4650   -9.3970 hc      1958 PE      -0.019800
  11744 H12        36.1530  -12.7650   -7.6170 hc      1958 PE      -0.019800
  11745 H21        34.2430  -10.9550   -9.3270 hc      1958 PE      -0.019800
  11746 H22        34.2530  -11.0150   -7.5970 hc      1958 PE      -0.019800
  11747 C1         35.9630  -12.0950   -8.4670 c3      1958 PE       0.039600
  11748 C2         34.4730  -11.6250   -8.4870 c3      1958 PE       0.039600
  11749 H11        33.5530  -13.5450   -9.0470 hc      1959 PE      -0.019800
  11750 H12        33.6830  -13.2850   -7.3170 hc      1959 PE      -0.019800
  11751 H21        31.8130  -11.4250   -8.9470 hc      1959 PE      -0.019800
  11752 H22        31.8930  -11.5650   -7.2570 hc      1959 PE      -0.019800
  11753 C1         33.4630  -12.7750   -8.2670 c3      1959 PE       0.039600
  11754 C2         32.0030  -12.1750   -8.1670 c3      1959 PE       0.039600
  11755 H11        31.0330  -13.8950   -9.2970 hc      1960 PE      -0.019800
  11756 H12        31.3030  -14.1850   -7.6070 hc      1960 PE      -0.019800
  11757 H21        29.2430  -12.1150   -8.5470 hc      1960 PE      -0.019800
  11758 H22        29.5130  -12.7250   -6.8970 hc      1960 PE      -0.019800
  11759 C1         31.0230  -13.3950   -8.3170 c3      1960 PE       0.039600
  11760 C2         29.5830  -12.9750   -7.9570 c3      1960 PE       0.039600
  11761 H11        28.5530  -14.2450   -9.3670 hc      1961 PE      -0.019800
  11762 H12        28.8430  -15.0550   -7.8170 hc      1961 PE      -0.019800
  11763 H21        26.9130  -12.7750   -8.1870 hc      1961 PE      -0.019800
  11764 H22        27.1630  -13.7150   -6.7570 hc      1961 PE      -0.019800
  11765 C1         28.5630  -14.0950   -8.2770 c3      1961 PE       0.039600
  11766 C2         27.1430  -13.7950   -7.8470 c3      1961 PE       0.039600
  11767 H11        25.9930  -14.8250   -9.4470 hc      1962 PE      -0.019800
  11768 H12        26.4430  -15.8450   -8.0070 hc      1962 PE      -0.019800
  11769 H21        24.5130  -13.4150   -8.0870 hc      1962 PE      -0.019800
  11770 H22        24.6630  -14.6450   -6.7870 hc      1962 PE      -0.019800
  11771 C1         26.1230  -14.8650   -8.3570 c3      1962 PE       0.039600
  11772 C2         24.6830  -14.4750   -7.8670 c3      1962 PE       0.039600
  11773 H11        23.6130  -15.2650   -9.5470 hc      1963 PE      -0.019800
  11774 H12        23.5730  -16.3050   -8.0870 hc      1963 PE      -0.019800
  11775 H21        22.0330  -13.7950   -7.7670 hc      1963 PE      -0.019800
  11776 H22        22.1530  -15.2850   -6.8270 hc      1963 PE      -0.019800
  11777 C1         23.5130  -15.2750   -8.4570 c3      1963 PE       0.039600
  11778 C2         22.2030  -14.8750   -7.8470 c3      1963 PE       0.039600
  11779 H11        20.7730  -14.8250   -9.4770 hc      1964 PE      -0.019800
  11780 H12        21.0930  -16.4450   -8.9070 hc      1964 PE      -0.019800
  11781 H21        19.5230  -14.3550   -7.4470 hc      1964 PE      -0.019800
  11782 H22        19.7430  -15.9950   -6.9370 hc      1964 PE      -0.019800
  11783 C1         20.9530  -15.4150   -8.5670 c3      1964 PE       0.039600
  11784 C2         19.6730  -15.3650   -7.8370 c3      1964 PE       0.039600
  11785 H11        18.4630  -15.1850   -9.5570 hc      1965 PE      -0.019800
  11786 H12        18.5630  -16.8450   -9.0570 hc      1965 PE      -0.019800
  11787 H21        17.0130  -14.6350   -7.4970 hc      1965 PE      -0.019800
  11788 H22        17.3130  -16.3150   -6.8670 hc      1965 PE      -0.019800
  11789 C1         18.4730  -15.8250   -8.6670 c3      1965 PE       0.039600
  11790 C2         17.1430  -15.6950   -7.7570 c3      1965 PE       0.039600
  11791 H11        15.7230  -15.6950   -9.3870 hc      1966 PE      -0.019800
  11792 H12        16.0530  -17.2250   -8.6870 hc      1966 PE      -0.019800
  11793 H21        14.4530  -15.1150   -7.0370 hc      1966 PE      -0.019800
  11794 H22        14.5530  -16.9350   -6.7270 hc      1966 PE      -0.019800
  11795 C1         15.8130  -16.1950   -8.4170 c3      1966 PE       0.039600
  11796 C2         14.5730  -16.1150   -7.4670 c3      1966 PE       0.039600
  11797 H11        13.2730  -15.6750   -9.1470 hc      1967 PE      -0.019800
  11798 H12        13.5530  -17.3050   -8.8970 hc      1967 PE      -0.019800
  11799 H21        11.8230  -15.3750   -7.2470 hc      1967 PE      -0.019800
  11800 H22        11.9830  -17.0650   -6.7970 hc      1967 PE      -0.019800
  11801 C1         13.3230  -16.4050   -8.3270 c3      1967 PE       0.039600
  11802 C2         11.9730  -16.3850   -7.6570 c3      1967 PE       0.039600
  11803 H11        10.8530  -15.9350   -9.4870 hc      1968 PE      -0.019800
  11804 H12        10.8730  -17.6750   -9.1970 hc      1968 PE      -0.019800
  11805 H21         9.1630  -15.8850   -7.3670 hc      1968 PE      -0.019800
  11806 H22         9.5430  -17.6450   -7.3370 hc      1968 PE      -0.019800
  11807 C1         10.8230  -16.6950   -8.6970 c3      1968 PE       0.039600
  11808 C2          9.4330  -16.7550   -7.9670 c3      1968 PE       0.039600
  11809 H11         8.1930  -16.1150   -9.5970 hc      1969 PE      -0.019800
  11810 H12         8.4230  -17.8250   -9.5770 hc      1969 PE      -0.019800
  11811 H21         6.5830  -16.2450   -7.7270 hc      1969 PE      -0.019800
  11812 H22         7.1430  -17.9050   -7.4270 hc      1969 PE      -0.019800
  11813 C1          8.2430  -16.9750   -8.9170 c3      1969 PE       0.039600
  11814 C2          6.9230  -17.1650   -8.2070 c3      1969 PE       0.039600
  11815 H11         5.5930  -17.1250   -9.8770 hc      1970 PE      -0.019800
  11816 H12         5.9530  -18.8050   -9.4670 hc      1970 PE      -0.019800
  11817 H21         4.3630  -17.1250   -7.3970 hc      1970 PE      -0.019800
  11818 H22         4.6630  -18.7850   -7.3970 hc      1970 PE      -0.019800
  11819 C1          5.7430  -17.8150   -9.0370 c3      1970 PE       0.039600
  11820 C2          4.5430  -17.9550   -8.0970 c3      1970 PE       0.039600
  11821 H11         3.0930  -17.5250   -9.6670 hc      1971 PE      -0.019800
  11822 H12         3.2130  -19.2050   -9.3770 hc      1971 PE      -0.019800
  11823 H21         1.6530  -17.1650   -7.7770 hc      1971 PE      -0.019800
  11824 H22         2.0830  -18.7750   -7.0870 hc      1971 PE      -0.019800
  11825 C1          3.2030  -18.2450   -8.8470 c3      1971 PE       0.039600
  11826 C2          1.9330  -18.1950   -8.0070 c3      1971 PE       0.039600
  11827 H11         0.5330  -18.1150   -9.7270 hc      1972 PE      -0.019800
  11828 H12         0.7030  -19.7050   -8.9570 hc      1972 PE      -0.019800
  11829 H21        -0.8070  -17.3950   -7.8070 hc      1972 PE      -0.019800
  11830 H22        -0.5770  -18.8850   -7.0470 hc      1972 PE      -0.019800
  11831 C1          0.6330  -18.6250   -8.7670 c3      1972 PE       0.039600
  11832 C2         -0.7070  -18.4550   -8.0570 c3      1972 PE       0.039600
  11833 H11        -2.0570  -18.7250   -9.8270 hc      1973 PE      -0.019800
  11834 H12        -1.7170  -20.1150   -8.8970 hc      1973 PE      -0.019800
  11835 H21        -3.4670  -17.8450   -7.9870 hc      1973 PE      -0.019800
  11836 H22        -3.1870  -19.3450   -7.0670 hc      1973 PE      -0.019800
  11837 C1         -1.9270  -19.0450   -8.7870 c3      1973 PE       0.039600
  11838 C2         -3.2570  -18.9250   -8.0670 c3      1973 PE       0.039600
  11839 H11        -4.4470  -19.1650   -9.8770 hc      1974 PE      -0.019800
  11840 H12        -4.1470  -20.6550   -9.0170 hc      1974 PE      -0.019800
  11841 H21        -5.9070  -18.5750   -7.7570 hc      1974 PE      -0.019800
  11842 H22        -5.7570  -20.2050   -7.2170 hc      1974 PE      -0.019800
  11843 C1         -4.4170  -19.6050   -8.8670 c3      1974 PE       0.039600
  11844 C2         -5.7270  -19.5950   -8.1370 c3      1974 PE       0.039600
  11845 H11        -7.2770  -19.1250   -9.7370 hc      1975 PE      -0.019800
  11846 H12        -6.9070  -20.8950   -9.5170 hc      1975 PE      -0.019800
  11847 H21        -8.4770  -19.2350   -7.5170 hc      1975 PE      -0.019800
  11848 H22        -8.0870  -20.9750   -7.4770 hc      1975 PE      -0.019800
  11849 C1         -7.0670  -19.9250   -9.0170 c3      1975 PE       0.039600
  11850 C2         -8.2670  -20.1150   -8.1270 c3      1975 PE       0.039600
  11851 H11        -9.8270  -19.6650   -9.6970 hc      1976 PE      -0.019800
  11852 H12        -9.5370  -21.3250   -9.4170 hc      1976 PE      -0.019800
  11853 H21       -11.0570  -19.5550   -7.3570 hc      1976 PE      -0.019800
  11854 H22       -10.8070  -21.2550   -7.1470 hc      1976 PE      -0.019800
  11855 C1         -9.6570  -20.3750   -8.8770 c3      1976 PE       0.039600
  11856 C2        -10.9170  -20.4850   -7.9170 c3      1976 PE       0.039600
  11857 H11       -12.3470  -20.1250   -9.4970 hc      1977 PE      -0.019800
  11858 H12       -12.1670  -21.8650   -9.2370 hc      1977 PE      -0.019800
  11859 H21       -13.6770  -20.1150   -7.2470 hc      1977 PE      -0.019800
  11860 H22       -13.2570  -21.9050   -7.1070 hc      1977 PE      -0.019800
  11861 C1        -12.2270  -20.8950   -8.7270 c3      1977 PE       0.039600
  11862 C2        -13.4670  -21.0550   -7.7770 c3      1977 PE       0.039600
  11863 H11       -14.7370  -20.4450   -9.5570 hc      1978 PE      -0.019800
  11864 H12       -14.7470  -22.1050   -9.2370 hc      1978 PE      -0.019800
  11865 H21       -16.0470  -20.1250   -7.2770 hc      1978 PE      -0.019800
  11866 H22       -15.8770  -21.8250   -7.0870 hc      1978 PE      -0.019800
  11867 C1        -14.6870  -21.1450   -8.7170 c3      1978 PE       0.039600
  11868 C2        -15.9570  -21.0550   -7.8670 c3      1978 PE       0.039600
  11869 H11       -17.3370  -20.4150   -9.3770 hc      1979 PE      -0.019800
  11870 H12       -17.2270  -22.1750   -9.2370 hc      1979 PE      -0.019800
  11871 H21       -18.2370  -20.5550   -6.8470 hc      1979 PE      -0.019800
  11872 H22       -18.3970  -22.3250   -7.2970 hc      1979 PE      -0.019800
  11873 C1        -17.2270  -21.2350   -8.6670 c3      1979 PE       0.039600
  11874 C2        -18.3570  -21.2850   -7.6570 c3      1979 PE       0.039600
  11875 H11       -19.5870  -20.3650   -9.1370 hc      1980 PE      -0.019800
  11876 H12       -19.9370  -22.0350   -8.9770 hc      1980 PE      -0.019800
  11877 H21       -21.6770  -20.5950   -8.2270 hc      1980 PE      -0.019800
  11878 H22       -20.6570  -19.7250   -7.0170 hc      1980 PE      -0.019800
  11879 C1        -19.6870  -21.1550   -8.3770 c3      1980 PE       0.039600
  11880 C2        -20.8170  -20.6750   -7.5470 c3      1980 PE       0.039600
  11881 H11       -16.8670   12.4050   -3.7770 hc      1981 PE      -0.019800
  11882 H12       -18.0770   11.7250   -5.0370 hc      1981 PE      -0.019800
  11883 H21       -16.2270   10.1750   -3.2270 hc      1981 PE      -0.019800
  11884 H22       -16.2670   10.1750   -5.0170 hc      1981 PE      -0.019800
  11885 C1        -17.4970   11.5750   -4.1170 c3      1981 PE       0.039600
  11886 C2        -16.8770   10.2150   -4.1070 c3      1981 PE       0.039600
  11887 H11       -18.4770    9.2850   -3.1270 hc      1982 PE      -0.019800
  11888 H12       -18.6670    9.1750   -4.9770 hc      1982 PE      -0.019800
  11889 H21       -16.8270    7.5050   -3.2470 hc      1982 PE      -0.019800
  11890 H22       -16.6670    7.5550   -4.9170 hc      1982 PE      -0.019800
  11891 C1        -18.0170    9.1050   -4.0970 c3      1982 PE       0.039600
  11892 C2        -17.4470    7.6150   -4.1470 c3      1982 PE       0.039600
  11893 H11       -19.1770    6.6250   -3.3970 hc      1983 PE      -0.019800
  11894 H12       -19.0470    6.6450   -5.1270 hc      1983 PE      -0.019800
  11895 H21       -17.0870    5.0750   -3.3870 hc      1983 PE      -0.019800
  11896 H22       -17.1770    5.1450   -5.1270 hc      1983 PE      -0.019800
  11897 C1        -18.4670    6.4650   -4.2170 c3      1983 PE       0.039600
  11898 C2        -17.7970    5.1150   -4.2270 c3      1983 PE       0.039600
  11899 H11       -19.4270    3.9950   -3.2670 hc      1984 PE      -0.019800
  11900 H12       -19.5370    4.0750   -5.0170 hc      1984 PE      -0.019800
  11901 H21       -17.2970    2.5850   -3.5170 hc      1984 PE      -0.019800
  11902 H22       -17.5470    2.8050   -5.2670 hc      1984 PE      -0.019800
  11903 C1        -18.8270    4.0050   -4.1870 c3      1984 PE       0.039600
  11904 C2        -18.0470    2.7150   -4.2970 c3      1984 PE       0.039600
  11905 H11       -19.6070    1.5850   -3.1970 hc      1985 PE      -0.019800
  11906 H12       -19.8070    1.8450   -4.9370 hc      1985 PE      -0.019800
  11907 H21       -17.6770   -0.0850   -3.6570 hc      1985 PE      -0.019800
  11908 H22       -17.9470    0.1750   -5.4070 hc      1985 PE      -0.019800
  11909 C1        -19.0970    1.5350   -4.1570 c3      1985 PE       0.039600
  11910 C2        -18.4270    0.1550   -4.4170 c3      1985 PE       0.039600
  11911 H11       -20.1270   -0.7250   -3.3870 hc      1986 PE      -0.019800
  11912 H12       -20.2470   -1.0250   -5.1370 hc      1986 PE      -0.019800
  11913 H21       -18.2570   -2.3750   -3.3070 hc      1986 PE      -0.019800
  11914 H22       -18.0970   -2.4850   -4.9770 hc      1986 PE      -0.019800
  11915 C1        -19.5570   -0.9450   -4.2970 c3      1986 PE       0.039600
  11916 C2        -18.8770   -2.3950   -4.2070 c3      1986 PE       0.039600
  11917 H11       -20.6470   -3.4650   -3.4670 hc      1987 PE      -0.019800
  11918 H12       -20.5270   -3.4950   -5.2070 hc      1987 PE      -0.019800
  11919 H21       -18.8770   -5.2250   -3.3170 hc      1987 PE      -0.019800
  11920 H22       -18.6470   -5.1850   -5.0170 hc      1987 PE      -0.019800
  11921 C1        -19.9270   -3.5550   -4.2870 c3      1987 PE       0.039600
  11922 C2        -19.4070   -4.9750   -4.2470 c3      1987 PE       0.039600
  11923 H11       -21.3770   -5.8750   -3.5470 hc      1988 PE      -0.019800
  11924 H12       -21.1070   -5.7450   -5.2470 hc      1988 PE      -0.019800
  11925 H21       -19.5070   -7.6750   -3.3470 hc      1988 PE      -0.019800
  11926 H22       -19.4370   -7.6650   -5.1770 hc      1988 PE      -0.019800
  11927 C1        -20.6170   -6.0350   -4.3170 c3      1988 PE       0.039600
  11928 C2        -20.0470   -7.4850   -4.2870 c3      1988 PE       0.039600
  11929 H11       -21.8870   -8.3450   -3.4370 hc      1989 PE      -0.019800
  11930 H12       -21.7270   -8.5750   -5.1470 hc      1989 PE      -0.019800
  11931 H21       -20.1070  -10.0150   -3.1470 hc      1989 PE      -0.019800
  11932 H22       -19.7770  -10.0850   -4.8570 hc      1989 PE      -0.019800
  11933 C1        -21.1470   -8.5650   -4.2170 c3      1989 PE       0.039600
  11934 C2        -20.5870   -9.9350   -4.1270 c3      1989 PE       0.039600
  11935 H11       -22.4970  -10.8250   -3.6170 hc      1990 PE      -0.019800
  11936 H12       -22.2170  -11.1650   -5.2370 hc      1990 PE      -0.019800
  11937 H21       -20.9470  -12.4750   -2.8770 hc      1990 PE      -0.019800
  11938 H22       -20.2670  -12.7050   -4.4870 hc      1990 PE      -0.019800
  11939 C1        -21.6670  -11.0350   -4.2970 c3      1990 PE       0.039600
  11940 C2        -21.1870  -12.4550   -3.9470 c3      1990 PE       0.039600
  11941 H11       -23.2370  -13.3950   -3.8170 hc      1991 PE      -0.019800
  11942 H12       -22.3770  -13.7650   -5.2570 hc      1991 PE      -0.019800
  11943 H21       -21.6070  -14.6250   -2.4070 hc      1991 PE      -0.019800
  11944 H22       -20.6970  -15.0750   -3.9070 hc      1991 PE      -0.019800
  11945 C1        -22.2170  -13.5550   -4.1970 c3      1991 PE       0.039600
  11946 C2        -21.6770  -14.8450   -3.4770 c3      1991 PE       0.039600
  11947 H11       -22.0270  -16.9850   -3.2370 hc      1992 PE      -0.019800
  11948 H12       -23.4370  -16.0150   -3.0370 hc      1992 PE      -0.019800
  11949 H21       -22.2170  -16.3850   -5.8370 hc      1992 PE      -0.019800
  11950 H22       -23.8270  -15.7250   -5.3370 hc      1992 PE      -0.019800
  11951 C1        -22.5470  -16.1350   -3.6770 c3      1992 PE       0.039600
  11952 C2        -23.0570  -16.4750   -5.1370 c3      1992 PE       0.039600
  11953 H11       -22.6370  -18.5650   -5.2670 hc      1993 PE      -0.019800
  11954 H12       -24.0570  -18.1450   -4.2270 hc      1993 PE      -0.019800
  11955 H21       -23.9770  -18.3750   -7.2170 hc      1993 PE      -0.019800
  11956 H22       -25.1470  -17.3050   -6.3670 hc      1993 PE      -0.019800
  11957 C1        -23.5270  -17.9250   -5.1670 c3      1993 PE       0.039600
  11958 C2        -24.5570  -18.2250   -6.2870 c3      1993 PE       0.039600
  11959 H11       -25.8370  -19.5450   -5.0570 hc      1994 PE      -0.019800
  11960 H12       -26.2870  -19.2850   -6.7070 hc      1994 PE      -0.019800
  11961 H21       -23.8870  -20.8850   -5.6270 hc      1994 PE      -0.019800
  11962 H22       -24.2470  -20.5950   -7.4170 hc      1994 PE      -0.019800
  11963 C1        -25.4070  -19.4350   -6.0670 c3      1994 PE       0.039600
  11964 C2        -24.6470  -20.7450   -6.4070 c3      1994 PE       0.039600
  11965 H11       -25.1270  -22.8250   -6.1470 hc      1995 PE      -0.019800
  11966 H12       -26.4770  -21.8350   -5.9770 hc      1995 PE      -0.019800
  11967 H21       -25.1170  -22.9750   -8.4170 hc      1995 PE      -0.019800
  11968 H22       -25.9370  -21.3650   -8.7570 hc      1995 PE      -0.019800
  11969 C1        -25.5670  -21.9250   -6.5870 c3      1995 PE       0.039600
  11970 C2        -25.8670  -22.2350   -8.0970 c3      1995 PE       0.039600
  11971 H11       -27.2970  -23.4150   -9.1370 hc      1996 PE      -0.019800
  11972 H12       -27.2870  -23.6550   -7.4570 hc      1996 PE      -0.019800
  11973 H21       -28.0770  -20.9550   -8.5270 hc      1996 PE      -0.019800
  11974 H22       -28.4470  -21.5450   -6.9270 hc      1996 PE      -0.019800
  11975 C1        -27.2270  -22.8550   -8.1970 c3      1996 PE       0.039600
  11976 C2        -28.4270  -21.8450   -7.9770 c3      1996 PE       0.039600
  11977 H11       -29.8070  -22.7050   -9.5470 hc      1997 PE      -0.019800
  11978 H12       -29.9170  -23.4450   -7.9570 hc      1997 PE      -0.019800
  11979 H21       -30.9270  -20.7750   -8.9370 hc      1997 PE      -0.019800
  11980 H22       -30.6870  -20.9850   -7.1670 hc      1997 PE      -0.019800
  11981 C1        -29.7970  -22.4850   -8.4770 c3      1997 PE       0.039600
  11982 C2        -30.9170  -21.4950   -8.1070 c3      1997 PE       0.039600
  11983 H11       -32.3470  -22.7950   -9.0770 hc      1998 PE      -0.019800
  11984 H12       -32.2470  -22.9350   -7.3270 hc      1998 PE      -0.019800
  11985 H21       -33.7870  -20.8850   -8.9270 hc      1998 PE      -0.019800
  11986 H22       -33.1670  -20.4650   -7.3070 hc      1998 PE      -0.019800
  11987 C1        -32.2270  -22.2150   -8.1470 c3      1998 PE       0.039600
  11988 C2        -33.4770  -21.2950   -7.9570 c3      1998 PE       0.039600
  11989 H11       -34.0770  -22.6850   -6.4570 hc      1999 PE      -0.019800
  11990 H12       -35.2870  -21.4050   -6.7770 hc      1999 PE      -0.019800
  11991 H21       -34.8170  -23.9550   -8.1670 hc      1999 PE      -0.019800
  11992 H22       -35.3970  -22.6350   -9.2570 hc      1999 PE      -0.019800
  11993 C1        -34.5670  -22.0950   -7.2370 c3      1999 PE       0.039600
  11994 C2        -35.3670  -23.0050   -8.2170 c3      1999 PE       0.039600
  11995 H11       -36.6870  -23.7750   -6.6770 hc      2000 PE      -0.019800
  11996 H12       -37.3470  -22.4850   -7.4670 hc      2000 PE      -0.019800
  11997 H21       -36.9670  -25.1750   -8.8870 hc      2000 PE      -0.019800
  11998 H22       -37.9670  -23.8550   -9.5370 hc      2000 PE      -0.019800
  11999 C1        -36.8070  -23.4050   -7.7070 c3      2000 PE       0.039600
  12000 C2        -37.6770  -24.3750   -8.6170 c3      2000 PE       0.039600
  12001 H11       -38.2870  -25.6050   -6.9070 hc      2001 PE      -0.019800
  12002 H12       -39.3470  -24.2650   -7.3670 hc      2001 PE      -0.019800
  12003 H21       -38.9970  -26.5250   -9.3070 hc      2001 PE      -0.019800
  12004 H22       -40.3470  -25.5250   -9.3070 hc      2001 PE      -0.019800
  12005 C1        -38.7470  -25.0950   -7.7670 c3      2001 PE       0.039600
  12006 C2        -39.6570  -26.0150   -8.5970 c3      2001 PE       0.039600
  12007 H11        40.1630  -27.6550   -7.3170 hc      2002 PE      -0.019800
  12008 H12        38.8230  -26.5050   -7.1970 hc      2002 PE      -0.019800
  12009 H21        39.2930  -28.2250   -9.6670 hc      2002 PE      -0.019800
  12010 H22        37.9130  -27.1950   -9.1370 hc      2002 PE      -0.019800
  12011 C1         39.4930  -27.0150   -7.8970 c3      2002 PE       0.039600
  12012 C2         38.6830  -27.9150   -8.8070 c3      2002 PE       0.039600
  12013 H11        38.9530  -29.7450   -7.7270 hc      2003 PE      -0.019800
  12014 H12        37.4430  -28.8650   -7.2470 hc      2003 PE      -0.019800
  12015 H21        37.8530  -30.3550   -9.9370 hc      2003 PE      -0.019800
  12016 H22        36.3130  -29.6450   -9.2770 hc      2003 PE      -0.019800
  12017 C1         38.0730  -29.1950   -8.0870 c3      2003 PE       0.039600
  12018 C2         37.2630  -30.1250   -9.0370 c3      2003 PE       0.039600
  12019 H11        37.8130  -31.7550   -7.7670 hc      2004 PE      -0.019800
  12020 H12        36.2630  -31.1650   -7.4570 hc      2004 PE      -0.019800
  12021 H21        37.2130  -32.8350   -9.7670 hc      2004 PE      -0.019800
  12022 H22        35.5530  -32.0850   -9.6370 hc      2004 PE      -0.019800
  12023 C1         36.9230  -31.4050   -8.3070 c3      2004 PE       0.039600
  12024 C2         36.4130  -32.5050   -9.0970 c3      2004 PE       0.039600
  12025 H11        36.5930  -33.8250   -7.4070 hc      2005 PE      -0.019800
  12026 H12        34.9530  -33.3950   -7.6370 hc      2005 PE      -0.019800
  12027 H21        36.3630  -35.5650   -9.2270 hc      2005 PE      -0.019800
  12028 H22        34.8330  -34.7750   -9.7870 hc      2005 PE      -0.019800
  12029 C1         35.8530  -33.6750   -8.2070 c3      2005 PE       0.039600
  12030 C2         35.4730  -34.9950   -8.9270 c3      2005 PE       0.039600
  12031 H11        35.4130  -36.1750   -7.1370 hc      2006 PE      -0.019800
  12032 H12        33.8430  -35.5950   -7.4770 hc      2006 PE      -0.019800
  12033 H21        35.2430  -37.7450   -9.2170 hc      2006 PE      -0.019800
  12034 H22        33.6830  -37.0750   -9.6170 hc      2006 PE      -0.019800
  12035 C1         34.7430  -35.9850   -7.9870 c3      2006 PE       0.039600
  12036 C2         34.3530  -37.2850   -8.7770 c3      2006 PE       0.039600
  12037 H11        34.0630  -38.2950   -6.8570 hc      2007 PE      -0.019800
  12038 H12        32.5730  -38.0250   -7.7070 hc      2007 PE      -0.019800
  12039 H21        33.3130  -39.9450   -9.2770 hc      2007 PE      -0.019800
  12040 H22        33.0230  -40.3450   -7.6370 hc      2007 PE      -0.019800
  12041 C1         33.6130  -38.3150   -7.8570 c3      2007 PE       0.039600
  12042 C2         33.7230  -39.7950   -8.2770 c3      2007 PE       0.039600
  12043 H11        35.6430   39.7150   -9.2370 hc      2008 PE      -0.019800
  12044 H12        35.7130   39.9550   -7.4970 hc      2008 PE      -0.019800
  12045 H21        34.4230   37.5650   -8.8670 hc      2008 PE      -0.019800
  12046 H22        34.6630   37.8650   -7.1170 hc      2008 PE      -0.019800
  12047 C1         35.0930   39.5450   -8.3070 c3      2008 PE       0.039600
  12048 C2         35.0930   38.0250   -8.1170 c3      2008 PE       0.039600
  12049 H11        37.0330   37.6950   -9.1770 hc      2009 PE      -0.019800
  12050 H12        37.0230   37.9050   -7.3770 hc      2009 PE      -0.019800
  12051 H21        35.6030   35.5750   -8.7870 hc      2009 PE      -0.019800
  12052 H22        36.0930   35.5050   -7.1770 hc      2009 PE      -0.019800
  12053 C1         36.5030   37.4750   -8.2370 c3      2009 PE       0.039600
  12054 C2         36.4130   35.9250   -8.1370 c3      2009 PE       0.039600
  12055 H11        37.8930   35.4650   -9.5770 hc      2010 PE      -0.019800
  12056 H12        38.5830   35.7750   -7.9170 hc      2010 PE      -0.019800
  12057 H21        38.3930   33.2150   -8.8070 hc      2010 PE      -0.019800
  12058 H22        37.9830   33.6550   -7.0570 hc      2010 PE      -0.019800
  12059 C1         37.7630   35.3250   -8.4970 c3      2010 PE       0.039600
  12060 C2         37.7530   33.7850   -8.1170 c3      2010 PE       0.039600
  12061 H11        26.9930  -34.8750   -4.9970 hc      2011 PE      -0.019800
  12062 H12        25.4630  -34.3650   -4.3370 hc      2011 PE      -0.019800
  12063 H21        24.5130  -36.0450   -5.8270 hc      2011 PE      -0.019800
  12064 H22        24.8030  -36.9950   -4.2770 hc      2011 PE      -0.019800
  12065 C1         26.1030  -35.2450   -4.4770 c3      2011 PE       0.039600
  12066 C2         25.2530  -36.4450   -5.1170 c3      2011 PE       0.039600
  12067 H11        27.0130  -37.7350   -5.1670 hc      2012 PE      -0.019800
  12068 H12        25.6230  -38.2550   -6.0970 hc      2012 PE      -0.019800
  12069 H21        27.5230  -36.1250   -6.7370 hc      2012 PE      -0.019800
  12070 H22        26.0830  -36.3050   -7.7270 hc      2012 PE      -0.019800
  12071 C1         26.2430  -37.3850   -5.8670 c3      2012 PE       0.039600
  12072 C2         26.8430  -36.8650   -7.1770 c3      2012 PE       0.039600
  12073 H11        27.9530  -37.4650   -8.9170 hc      2013 PE      -0.019800
  12074 H12        28.6430  -38.1550   -7.6870 hc      2013 PE      -0.019800
  12075 H21        25.9830  -39.0550   -8.8270 hc      2013 PE      -0.019800
  12076 H22        26.6430  -39.7450   -7.2970 hc      2013 PE      -0.019800
  12077 C1         27.6130  -37.9750   -8.0070 c3      2013 PE       0.039600
  12078 C2         26.8930  -39.3250   -8.2770 c3      2013 PE       0.039600
  12079 H11        27.0830   38.8150   -9.5370 hc      2014 PE      -0.019800
  12080 H12        28.1930   40.0950   -9.8870 hc      2014 PE      -0.019800
  12081 H21        28.2730   38.1850   -7.4570 hc      2014 PE      -0.019800
  12082 H22        29.3630   39.5350   -7.7170 hc      2014 PE      -0.019800
  12083 C1         27.6730   39.6050   -9.0570 c3      2014 PE       0.039600
  12084 C2         28.7330   38.8150   -8.2370 c3      2014 PE       0.039600
  12085 H11        28.9730   37.1650   -9.5370 hc      2015 PE      -0.019800
  12086 H12        30.1430   38.3650   -9.9870 hc      2015 PE      -0.019800
  12087 H21        30.3130   36.8450   -7.3570 hc      2015 PE      -0.019800
  12088 H22        31.6030   37.8650   -8.1270 hc      2015 PE      -0.019800
  12089 C1         29.6730   37.8950   -9.1170 c3      2015 PE       0.039600
  12090 C2         30.7430   37.2150   -8.2970 c3      2015 PE       0.039600
  12091 H11        30.3630   35.3250   -9.1370 hc      2016 PE      -0.019800
  12092 H12        31.6830   36.0950   -9.8770 hc      2016 PE      -0.019800
  12093 H21        31.6330   34.7650   -7.1070 hc      2016 PE      -0.019800
  12094 H22        32.9930   35.6250   -7.5570 hc      2016 PE      -0.019800
  12095 C1         31.2430   35.9250   -8.8770 c3      2016 PE       0.039600
  12096 C2         32.1730   35.0750   -8.0170 c3      2016 PE       0.039600
  12097 H11        31.8030   33.2950   -8.9170 hc      2017 PE      -0.019800
  12098 H12        33.0730   34.1250   -9.7370 hc      2017 PE      -0.019800
  12099 H21        33.2130   32.3950   -7.2170 hc      2017 PE      -0.019800
  12100 H22        34.3530   33.6950   -7.3570 hc      2017 PE      -0.019800
  12101 C1         32.7030   33.8950   -8.7270 c3      2017 PE       0.039600
  12102 C2         33.7330   33.0250   -7.9570 c3      2017 PE       0.039600
  12103 H11        33.7730   31.6050   -9.5270 hc      2018 PE      -0.019800
  12104 H12        35.1330   32.7850   -9.5370 hc      2018 PE      -0.019800
  12105 H21        34.6330   30.6950   -7.4470 hc      2018 PE      -0.019800
  12106 H22        36.1630   31.6350   -7.4470 hc      2018 PE      -0.019800
  12107 C1         34.5030   32.1450   -8.9170 c3      2018 PE       0.039600
  12108 C2         35.4030   31.1650   -8.0870 c3      2018 PE       0.039600
  12109 H11        35.3830   29.3750   -9.4370 hc      2019 PE      -0.019800
  12110 H12        36.6230   30.6050   -9.6870 hc      2019 PE      -0.019800
  12111 H21        36.5130   28.8750   -7.2270 hc      2019 PE      -0.019800
  12112 H22        37.8530   29.8250   -7.7070 hc      2019 PE      -0.019800
  12113 C1         36.0630   30.0650   -8.9170 c3      2019 PE       0.039600
  12114 C2         37.0430   29.2150   -8.1270 c3      2019 PE       0.039600
  12115 H11        36.7530   27.2650   -9.2470 hc      2020 PE      -0.019800
  12116 H12        38.0230   28.3050   -9.7570 hc      2020 PE      -0.019800
  12117 H21        37.9130   26.6350   -7.1970 hc      2020 PE      -0.019800
  12118 H22        39.1030   27.8350   -7.4070 hc      2020 PE      -0.019800
  12119 C1         37.4730   27.9950   -8.8570 c3      2020 PE       0.039600
  12120 C2         38.4430   27.1750   -7.9870 c3      2020 PE       0.039600
  12121 H11       -41.2970   25.6750   -9.4570 hc      2021 PE      -0.019800
  12122 H12       -39.9970   26.8250   -9.4670 hc      2021 PE      -0.019800
  12123 H21       -40.3370   24.7850   -7.2870 hc      2021 PE      -0.019800
  12124 H22       -39.2270   26.0550   -7.1070 hc      2021 PE      -0.019800
  12125 C1        -40.6470   26.2650   -8.7870 c3      2021 PE       0.039600
  12126 C2        -39.6970   25.4450   -7.8870 c3      2021 PE       0.039600
  12127 H11       -39.3870   23.8650   -9.3070 hc      2022 PE      -0.019800
  12128 H12       -38.1470   25.0850   -9.3870 hc      2022 PE      -0.019800
  12129 H21       -38.6170   23.0150   -7.1770 hc      2022 PE      -0.019800
  12130 H22       -37.2470   24.1550   -7.0670 hc      2022 PE      -0.019800
  12131 C1        -38.7770   24.5250   -8.6770 c3      2022 PE       0.039600
  12132 C2        -37.9270   23.6450   -7.7570 c3      2022 PE       0.039600
  12133 H11       -37.7770   22.2450   -9.3170 hc      2023 PE      -0.019800
  12134 H12       -36.4370   23.3050   -9.2970 hc      2023 PE      -0.019800
  12135 H21       -37.1870   21.1050   -7.3670 hc      2023 PE      -0.019800
  12136 H22       -35.8470   22.0550   -6.9970 hc      2023 PE      -0.019800
  12137 C1        -37.0870   22.7250   -8.6170 c3      2023 PE       0.039600
  12138 C2        -36.3470   21.6050   -7.8670 c3      2023 PE       0.039600
  12139 H11       -36.1270   20.5050   -9.6970 hc      2024 PE      -0.019800
  12140 H12       -34.6470   21.2050   -9.2770 hc      2024 PE      -0.019800
  12141 H21       -34.3670   18.7750   -8.8170 hc      2024 PE      -0.019800
  12142 H22       -35.9870   18.6550   -8.0670 hc      2024 PE      -0.019800
  12143 C1        -35.5070   20.6950   -8.8170 c3      2024 PE       0.039600
  12144 C2        -35.0870   19.2750   -8.1570 c3      2024 PE       0.039600
  12145 H11       -33.8170   20.3950   -6.6870 hc      2025 PE      -0.019800
  12146 H12       -35.1270   19.7350   -5.9170 hc      2025 PE      -0.019800
  12147 H21       -33.0970   17.8950   -7.2270 hc      2025 PE      -0.019800
  12148 H22       -34.3070   17.3750   -6.1270 hc      2025 PE      -0.019800
  12149 C1        -34.4370   19.4850   -6.7270 c3      2025 PE       0.039600
  12150 C2        -33.6670   18.2350   -6.3470 c3      2025 PE       0.039600
  12151 H11       -32.0070   19.2850   -5.3870 hc      2026 PE      -0.019800
  12152 H12       -33.2670   18.8050   -4.3470 hc      2026 PE      -0.019800
  12153 H21       -31.7270   16.4450   -5.5670 hc      2026 PE      -0.019800
  12154 H22       -32.5470   16.5650   -4.0170 hc      2026 PE      -0.019800
  12155 C1        -32.6870   18.4350   -5.1970 c3      2026 PE       0.039600
  12156 C2        -31.9370   17.1250   -4.7370 c3      2026 PE       0.039600
  12157 H11       -29.8970   17.8450   -4.8070 hc      2027 PE      -0.019800
  12158 H12       -30.6970   17.9850   -3.1670 hc      2027 PE      -0.019800
  12159 H21       -29.6470   15.2450   -4.1770 hc      2027 PE      -0.019800
  12160 H22       -30.3770   15.7150   -2.5870 hc      2027 PE      -0.019800
  12161 C1        -30.4870   17.3450   -4.0270 c3      2027 PE       0.039600
  12162 C2        -29.7970   16.0550   -3.4470 c3      2027 PE       0.039600
  12163 H11       -27.9670   17.2150   -3.5570 hc      2028 PE      -0.019800
  12164 H12       -28.7070   16.9950   -1.9470 hc      2028 PE      -0.019800
  12165 H21       -27.2070   14.7950   -3.5370 hc      2028 PE      -0.019800
  12166 H22       -28.1070   14.5850   -2.0370 hc      2028 PE      -0.019800
  12167 C1        -28.4670   16.5050   -2.8970 c3      2028 PE       0.039600
  12168 C2        -27.5070   15.3050   -2.6170 c3      2028 PE       0.039600
  12169 H11       -25.5270   16.1650   -2.6370 hc      2029 PE      -0.019800
  12170 H12       -26.3770   16.5250   -1.2170 hc      2029 PE      -0.019800
  12171 H21       -25.1970   13.8050   -2.0370 hc      2029 PE      -0.019800
  12172 H22       -26.3470   13.9550   -0.6570 hc      2029 PE      -0.019800
  12173 C1        -26.2070   15.6950   -1.9170 c3      2029 PE       0.039600
  12174 C2        -25.5570   14.4550   -1.2270 c3      2029 PE       0.039600
  12175 H11       -24.7470   15.3050    0.6430 hc      2030 PE      -0.019800
  12176 H12       -23.9370   13.8750   -0.0170 hc      2030 PE      -0.019800
  12177 H21       -23.8870   16.8550   -0.8470 hc      2030 PE      -0.019800
  12178 H22       -23.2870   15.6450   -1.9270 hc      2030 PE      -0.019800
  12179 C1        -24.3970   14.8350   -0.2870 c3      2030 PE       0.039600
  12180 C2        -23.4170   15.8650   -0.8570 c3      2030 PE       0.039600
  12181 H11       -21.5970   16.8750   -0.3970 hc      2031 PE      -0.019800
  12182 H12       -22.2370   15.7750    0.9330 hc      2031 PE      -0.019800
  12183 H21       -20.7870   15.1250   -1.6470 hc      2031 PE      -0.019800
  12184 H22       -21.6770   13.8350   -0.7970 hc      2031 PE      -0.019800
  12185 C1        -22.0870   15.9350   -0.1470 c3      2031 PE       0.039600
  12186 C2        -21.1670   14.7950   -0.6670 c3      2031 PE       0.039600
  12187 H11       -19.5870   15.5450    0.4530 hc      2032 PE      -0.019800
  12188 H12       -20.2370   14.1650    1.2830 hc      2032 PE      -0.019800
  12189 H21       -18.3670   14.1050   -1.1470 hc      2032 PE      -0.019800
  12190 H22       -19.2270   12.6750   -0.6170 hc      2032 PE      -0.019800
  12191 C1        -19.9670   14.5350    0.2830 c3      2032 PE       0.039600
  12192 C2        -18.8370   13.6450   -0.2770 c3      2032 PE       0.039600
  12193 H11       -16.8870   12.9850    0.1430 hc      2033 PE      -0.019800
  12194 H12       -17.2370   14.2750    1.1530 hc      2033 PE      -0.019800
  12195 H21       -18.4170   11.4750    1.5430 hc      2033 PE      -0.019800
  12196 H22       -18.6870   12.9850    2.5730 hc      2033 PE      -0.019800
  12197 C1        -17.7370   13.4050    0.7030 c3      2033 PE       0.039600
  12198 C2        -18.0270   12.4450    1.8830 c3      2033 PE       0.039600
  12199 H11       -16.1070   11.6150    1.9630 hc      2034 PE      -0.019800
  12200 H12       -16.3270   13.0250    3.0630 hc      2034 PE      -0.019800
  12201 H21       -17.5370   10.2750    3.5630 hc      2034 PE      -0.019800
  12202 H22       -17.5570   11.6050    4.5930 hc      2034 PE      -0.019800
  12203 C1        -16.7670   12.0850    2.7130 c3      2034 PE       0.039600
  12204 C2        -16.8870   11.0950    3.9030 c3      2034 PE       0.039600
  12205 H11       -15.0670   11.5550    4.8230 hc      2035 PE      -0.019800
  12206 H12       -15.5970   10.1050    5.3830 hc      2035 PE      -0.019800
  12207 H21       -14.5070   10.5950    2.5930 hc      2035 PE      -0.019800
  12208 H22       -15.3470    9.0350    3.1930 hc      2035 PE      -0.019800
  12209 C1        -15.5370   10.6550    4.4330 c3      2035 PE       0.039600
  12210 C2        -14.6870    9.8850    3.4130 c3      2035 PE       0.039600
  12211 H11       -12.8570   10.3150    4.4330 hc      2036 PE      -0.019800
  12212 H12       -13.5470    8.8150    4.9530 hc      2036 PE      -0.019800
  12213 H21       -12.0170    9.1650    2.2830 hc      2036 PE      -0.019800
  12214 H22       -13.0670    7.7550    2.6030 hc      2036 PE      -0.019800
  12215 C1        -13.3570    9.4150    4.0530 c3      2036 PE       0.039600
  12216 C2        -12.4370    8.5150    3.0630 c3      2036 PE       0.039600
  12217 H11       -11.9470    6.9350    4.4530 hc      2037 PE      -0.019800
  12218 H12       -10.9970    6.9450    3.0030 hc      2037 PE      -0.019800
  12219 H21       -10.0870    7.8850    5.4330 hc      2037 PE      -0.019800
  12220 H22       -10.9170    9.3350    4.9930 hc      2037 PE      -0.019800
  12221 C1        -11.4070    7.6050    3.7830 c3      2037 PE       0.039600
  12222 C2        -10.4070    8.4650    4.5630 c3      2037 PE       0.039600
  12223 H11        -9.6170    9.1250    2.7030 hc      2038 PE      -0.019800
  12224 H12        -8.6470    9.6750    4.0330 hc      2038 PE      -0.019800
  12225 H21        -8.6570    6.8550    2.8830 hc      2038 PE      -0.019800
  12226 H22        -8.0470    7.1050    4.4230 hc      2038 PE      -0.019800
  12227 C1         -9.1570    8.7950    3.6530 c3      2038 PE       0.039600
  12228 C2         -8.1370    7.6250    3.4630 c3      2038 PE       0.039600
  12229 H11        -6.6170    7.6550    1.9030 hc      2039 PE      -0.019800
  12230 H12        -6.7170    9.1550    2.8330 hc      2039 PE      -0.019800
  12231 H21        -5.6170    6.5250    3.8530 hc      2039 PE      -0.019800
  12232 H22        -5.8270    7.9650    4.8430 hc      2039 PE      -0.019800
  12233 C1         -6.7670    8.0650    2.9130 c3      2039 PE       0.039600
  12234 C2         -5.5970    7.6150    3.8230 c3      2039 PE       0.039600
  12235 H11        -3.4670    7.5150    3.9830 hc      2040 PE      -0.019800
  12236 H12        -4.1570    7.8250    2.3830 hc      2040 PE      -0.019800
  12237 H21        -3.4370    9.7950    4.4630 hc      2040 PE      -0.019800
  12238 H22        -3.7270   10.1350    2.7230 hc      2040 PE      -0.019800
  12239 C1         -4.2270    8.1050    3.4430 c3      2040 PE       0.039600
  12240 C2         -4.0870    9.5850    3.6030 c3      2040 PE       0.039600
  12241 H11        34.6830  -15.7650   -0.7770 hc      2041 PE      -0.019800
  12242 H12        34.9330  -16.6150    0.8230 hc      2041 PE      -0.019800
  12243 H21        34.7630  -18.6650   -0.9670 hc      2041 PE      -0.019800
  12244 H22        33.8530  -17.5250   -1.8570 hc      2041 PE      -0.019800
  12245 C1         34.9930  -16.6950   -0.2670 c3      2041 PE       0.039600
  12246 C2         34.1130  -17.7950   -0.8370 c3      2041 PE       0.039600
  12247 H11        33.1230  -18.6150    0.8230 hc      2042 PE      -0.019800
  12248 H12        32.4230  -17.0750    0.2530 hc      2042 PE      -0.019800
  12249 H21        32.0330  -19.6350   -1.2670 hc      2042 PE      -0.019800
  12250 H22        31.5930  -17.9850   -1.8770 hc      2042 PE      -0.019800
  12251 C1         32.8330  -18.0350   -0.0670 c3      2042 PE       0.039600
  12252 C2         31.6830  -18.6250   -0.9970 c3      2042 PE       0.039600
  12253 H11        30.7230  -19.7950    0.4530 hc      2043 PE      -0.019800
  12254 H12        30.2530  -18.0250    0.5130 hc      2043 PE      -0.019800
  12255 H21        29.4130  -20.4050   -1.0570 hc      2043 PE      -0.019800
  12256 H22        29.1330  -18.7050   -1.7870 hc      2043 PE      -0.019800
  12257 C1         30.4430  -18.9050   -0.1170 c3      2043 PE       0.039600
  12258 C2         29.2030  -19.3450   -0.8970 c3      2043 PE       0.039600
  12259 H11        28.0930  -20.0250    0.8430 hc      2044 PE      -0.019800
  12260 H12        27.8930  -18.3450    0.6630 hc      2044 PE      -0.019800
  12261 H21        26.6930  -20.4950   -1.3470 hc      2044 PE      -0.019800
  12262 H22        26.6330  -18.7450   -1.4970 hc      2044 PE      -0.019800
  12263 C1         27.9830  -19.2650    0.0630 c3      2044 PE       0.039600
  12264 C2         26.6730  -19.5650   -0.7770 c3      2044 PE       0.039600
  12265 H11        25.4930  -20.4650    0.8530 hc      2045 PE      -0.019800
  12266 H12        25.1930  -18.7450    0.6030 hc      2045 PE      -0.019800
  12267 H21        24.4030  -20.7550   -1.5770 hc      2045 PE      -0.019800
  12268 H22        23.8230  -19.1250   -1.4570 hc      2045 PE      -0.019800
  12269 C1         25.4030  -19.6950    0.0830 c3      2045 PE       0.039600
  12270 C2         24.1630  -19.9650   -0.8470 c3      2045 PE       0.039600
  12271 H11        23.2330  -21.2950    0.6430 hc      2046 PE      -0.019800
  12272 H12        22.7230  -19.6550    0.8730 hc      2046 PE      -0.019800
  12273 H21        21.6730  -21.6150   -1.2970 hc      2046 PE      -0.019800
  12274 H22        21.4630  -19.8550   -1.3370 hc      2046 PE      -0.019800
  12275 C1         22.9530  -20.3850    0.0930 c3      2046 PE       0.039600
  12276 C2         21.6530  -20.7150   -0.6770 c3      2046 PE       0.039600
  12277 H11        20.2930  -21.5450    0.9930 hc      2047 PE      -0.019800
  12278 H12        20.2430  -19.7550    0.6930 hc      2047 PE      -0.019800
  12279 H21        19.1830  -22.1850   -0.7870 hc      2047 PE      -0.019800
  12280 H22        19.0830  -20.6650   -1.6470 hc      2047 PE      -0.019800
  12281 C1         20.3530  -20.7450    0.2330 c3      2047 PE       0.039600
  12282 C2         19.0630  -21.1050   -0.6370 c3      2047 PE       0.039600
  12283 H11        17.8230  -21.2550    1.1030 hc      2048 PE      -0.019800
  12284 H12        17.6830  -19.6750    0.3130 hc      2048 PE      -0.019800
  12285 H21        16.7830  -22.4950   -0.7870 hc      2048 PE      -0.019800
  12286 H22        16.5530  -21.0650   -1.6770 hc      2048 PE      -0.019800
  12287 C1         17.7530  -20.7550    0.1330 c3      2048 PE       0.039600
  12288 C2         16.6030  -21.4150   -0.6370 c3      2048 PE       0.039600
  12289 H11        15.3230  -21.7850    1.0830 hc      2049 PE      -0.019800
  12290 H12        15.0530  -20.2150    0.4730 hc      2049 PE      -0.019800
  12291 H21        14.4030  -22.8050   -1.0770 hc      2049 PE      -0.019800
  12292 H22        13.8630  -21.2150   -1.5770 hc      2049 PE      -0.019800
  12293 C1         15.2630  -21.2350    0.1330 c3      2049 PE       0.039600
  12294 C2         14.0730  -21.8250   -0.6970 c3      2049 PE       0.039600
  12295 H11        12.7930  -22.6450    0.9930 hc      2050 PE      -0.019800
  12296 H12        12.6030  -20.9450    0.6930 hc      2050 PE      -0.019800
  12297 H21        11.6030  -23.1850   -1.1870 hc      2050 PE      -0.019800
  12298 H22        11.4030  -21.4650   -1.3970 hc      2050 PE      -0.019800
  12299 C1         12.7230  -21.9050    0.1830 c3      2050 PE       0.039600
  12300 C2         11.4530  -22.2450   -0.6270 c3      2050 PE       0.039600
  12301 H11        10.2430  -23.1050    1.0330 hc      2051 PE      -0.019800
  12302 H12         9.8830  -21.4650    0.8830 hc      2051 PE      -0.019800
  12303 H21         9.1230  -23.6450   -1.1670 hc      2051 PE      -0.019800
  12304 H22         8.9330  -21.8450   -1.4170 hc      2051 PE      -0.019800
  12305 C1         10.1330  -22.3350    0.2630 c3      2051 PE       0.039600
  12306 C2          8.9330  -22.6750   -0.6970 c3      2051 PE       0.039600
  12307 H11         7.5930  -23.3450    0.8830 hc      2052 PE      -0.019800
  12308 H12         7.4530  -21.6450    0.5630 hc      2052 PE      -0.019800
  12309 H21         6.6130  -23.9750   -1.2470 hc      2052 PE      -0.019800
  12310 H22         6.4030  -22.3250   -1.7270 hc      2052 PE      -0.019800
  12311 C1          7.6030  -22.6150    0.0630 c3      2052 PE       0.039600
  12312 C2          6.4330  -22.9650   -0.8370 c3      2052 PE       0.039600
  12313 H11         5.2630  -23.9050    0.6530 hc      2053 PE      -0.019800
  12314 H12         5.0930  -22.1050    0.4330 hc      2053 PE      -0.019800
  12315 H21         4.0430  -24.2750   -1.4170 hc      2053 PE      -0.019800
  12316 H22         3.8430  -22.5450   -1.6670 hc      2053 PE      -0.019800
  12317 C1          5.1130  -23.0850   -0.0670 c3      2053 PE       0.039600
  12318 C2          3.8830  -23.3250   -0.8970 c3      2053 PE       0.039600
  12319 H11         2.7930  -23.9350    0.8130 hc      2054 PE      -0.019800
  12320 H12         2.3130  -22.4150    0.4030 hc      2054 PE      -0.019800
  12321 H21         1.6130  -24.7550   -1.4170 hc      2054 PE      -0.019800
  12322 H22         1.0830  -23.0250   -1.5170 hc      2054 PE      -0.019800
  12323 C1          2.6130  -23.3450   -0.0970 c3      2054 PE       0.039600
  12324 C2          1.3530  -23.8550   -0.8470 c3      2054 PE       0.039600
  12325 H11         0.1930  -24.8250    0.6630 hc      2055 PE      -0.019800
  12326 H12        -0.0570  -23.0150    0.5130 hc      2055 PE      -0.019800
  12327 H21        -1.0770  -25.1650   -1.3570 hc      2055 PE      -0.019800
  12328 H22        -1.1770  -23.4050   -1.6770 hc      2055 PE      -0.019800
  12329 C1          0.0930  -23.9750   -0.0070 c3      2055 PE       0.039600
  12330 C2         -1.1270  -24.1650   -0.8970 c3      2055 PE       0.039600
  12331 H11        -2.2370  -24.8650    0.7130 hc      2056 PE      -0.019800
  12332 H12        -2.6870  -23.1250    0.3430 hc      2056 PE      -0.019800
  12333 H21        -3.4070  -25.5750   -1.3070 hc      2056 PE      -0.019800
  12334 H22        -3.9670  -23.9250   -1.6770 hc      2056 PE      -0.019800
  12335 C1         -2.4470  -24.1150   -0.0570 c3      2056 PE       0.039600
  12336 C2         -3.7370  -24.6250   -0.8670 c3      2056 PE       0.039600
  12337 H11        -4.7870  -25.2650    1.0530 hc      2057 PE      -0.019800
  12338 H12        -5.4670  -23.8050    0.3430 hc      2057 PE      -0.019800
  12339 H21        -5.9370  -26.4050   -0.9770 hc      2057 PE      -0.019800
  12340 H22        -6.4170  -24.7350   -1.5370 hc      2057 PE      -0.019800
  12341 C1         -4.9770  -24.7550    0.1030 c3      2057 PE       0.039600
  12342 C2         -6.2270  -25.3950   -0.6770 c3      2057 PE       0.039600
  12343 H11        -7.4070  -26.5350    0.7030 hc      2058 PE      -0.019800
  12344 H12        -7.5670  -24.7850    0.9630 hc      2058 PE      -0.019800
  12345 H21        -8.6770  -26.3750   -1.4270 hc      2058 PE      -0.019800
  12346 H22        -8.8470  -24.6250   -1.1770 hc      2058 PE      -0.019800
  12347 C1         -7.4870  -25.5650    0.2030 c3      2058 PE       0.039600
  12348 C2         -8.7270  -25.5850   -0.6670 c3      2058 PE       0.039600
  12349 H11        -9.8370  -26.7150    0.9930 hc      2059 PE      -0.019800
  12350 H12       -10.1270  -24.9450    0.8230 hc      2059 PE      -0.019800
  12351 H21       -11.1770  -27.2350   -1.1470 hc      2059 PE      -0.019800
  12352 H22       -11.3170  -25.4950   -1.3570 hc      2059 PE      -0.019800
  12353 C1        -10.0070  -25.8950    0.2830 c3      2059 PE       0.039600
  12354 C2        -11.2570  -26.2950   -0.6070 c3      2059 PE       0.039600
  12355 H11       -12.5570  -27.4350    0.6730 hc      2060 PE      -0.019800
  12356 H12       -12.8270  -25.7050    0.8830 hc      2060 PE      -0.019800
  12357 H21       -13.6070  -27.4750   -1.5770 hc      2060 PE      -0.019800
  12358 H22       -13.7970  -25.7650   -1.5370 hc      2060 PE      -0.019800
  12359 C1        -12.5570  -26.4650    0.1530 c3      2060 PE       0.039600
  12360 C2        -13.7170  -26.6350   -0.8670 c3      2060 PE       0.039600
  12361 H11       -14.8470  -27.3850    0.7330 hc      2061 PE      -0.019800
  12362 H12       -15.5570  -25.8650    0.1230 hc      2061 PE      -0.019800
  12363 H21       -16.0170  -28.5950   -1.1870 hc      2061 PE      -0.019800
  12364 H22       -16.2470  -27.0150   -1.9970 hc      2061 PE      -0.019800
  12365 C1        -15.0870  -26.8150   -0.1670 c3      2061 PE       0.039600
  12366 C2        -16.1670  -27.5150   -1.0270 c3      2061 PE       0.039600
  12367 H11       -17.2970  -27.8450    0.8430 hc      2062 PE      -0.019800
  12368 H12       -17.9770  -26.5750    0.0830 hc      2062 PE      -0.019800
  12369 H21       -18.1770  -29.4550   -1.1370 hc      2062 PE      -0.019800
  12370 H22       -19.0470  -27.9850   -1.6470 hc      2062 PE      -0.019800
  12371 C1        -17.5070  -27.5350   -0.1870 c3      2062 PE       0.039600
  12372 C2        -18.5570  -28.4850   -0.7970 c3      2062 PE       0.039600
  12373 H11       -20.0770  -27.7550    0.4430 hc      2063 PE      -0.019800
  12374 H12       -20.4770  -29.1750   -0.4870 hc      2063 PE      -0.019800
  12375 H21       -18.6470  -28.9750    1.9230 hc      2063 PE      -0.019800
  12376 H22       -18.9070  -30.4950    0.9930 hc      2063 PE      -0.019800
  12377 C1        -19.6670  -28.7150    0.1030 c3      2063 PE       0.039600
  12378 C2        -19.3670  -29.5750    1.3530 c3      2063 PE       0.039600
  12379 H11       -21.4470  -29.2150    1.9130 hc      2064 PE      -0.019800
  12380 H12       -21.1070  -30.8850    1.4530 hc      2064 PE      -0.019800
  12381 H21       -20.5270  -29.6650    4.1630 hc      2064 PE      -0.019800
  12382 H22       -19.7770  -31.1550    3.7430 hc      2064 PE      -0.019800
  12383 C1        -20.7170  -30.0350    2.0230 c3      2064 PE       0.039600
  12384 C2        -20.6470  -30.5350    3.5030 c3      2064 PE       0.039600
  12385 H11       -22.4770  -32.0450    3.4630 hc      2065 PE      -0.019800
  12386 H12       -21.7670  -31.6650    5.0330 hc      2065 PE      -0.019800
  12387 H21       -23.0770  -29.3550    3.5630 hc      2065 PE      -0.019800
  12388 H22       -22.7870  -29.6650    5.2530 hc      2065 PE      -0.019800
  12389 C1        -21.9770  -31.2550    4.0330 c3      2065 PE       0.039600
  12390 C2        -23.0470  -30.1550    4.3030 c3      2065 PE       0.039600
  12391 H11       -24.6370  -31.2850    3.4230 hc      2066 PE      -0.019800
  12392 H12       -24.4770  -31.4350    5.1730 hc      2066 PE      -0.019800
  12393 H21       -25.5370  -29.2250    3.3930 hc      2066 PE      -0.019800
  12394 H22       -25.3970  -28.9750    5.1930 hc      2066 PE      -0.019800
  12395 C1        -24.4470  -30.7150    4.3430 c3      2066 PE       0.039600
  12396 C2        -25.6270  -29.6850    4.3830 c3      2066 PE       0.039600
  12397 H11       -27.2970  -31.1450    3.8630 hc      2067 PE      -0.019800
  12398 H12       -27.0570  -30.7850    5.6230 hc      2067 PE      -0.019800
  12399 H21       -27.9570  -28.9150    3.5030 hc      2067 PE      -0.019800
  12400 H22       -27.7770  -28.5550    5.2130 hc      2067 PE      -0.019800
  12401 C1        -26.9970  -30.3950    4.6030 c3      2067 PE       0.039600
  12402 C2        -28.0070  -29.3650    4.5130 c3      2067 PE       0.039600
  12403 H11       -29.6870  -30.6950    4.1830 hc      2068 PE      -0.019800
  12404 H12       -29.5770  -30.0850    5.8430 hc      2068 PE      -0.019800
  12405 H21       -30.4270  -28.5650    3.2730 hc      2068 PE      -0.019800
  12406 H22       -30.3770  -27.9150    4.8930 hc      2068 PE      -0.019800
  12407 C1        -29.4670  -29.8150    4.7930 c3      2068 PE       0.039600
  12408 C2        -30.5470  -28.8350    4.3230 c3      2068 PE       0.039600
  12409 H11       -32.1870  -30.2350    3.8930 hc      2069 PE      -0.019800
  12410 H12       -32.0570  -29.9150    5.5330 hc      2069 PE      -0.019800
  12411 H21       -33.0570  -27.5950    3.8230 hc      2069 PE      -0.019800
  12412 H22       -32.9470  -27.7650    5.5830 hc      2069 PE      -0.019800
  12413 C1        -31.9770  -29.3950    4.5630 c3      2069 PE       0.039600
  12414 C2        -33.0670  -28.3250    4.6430 c3      2069 PE       0.039600
  12415 H11       -34.4570  -29.7850    3.8230 hc      2070 PE      -0.019800
  12416 H12       -34.5470  -29.6550    5.4930 hc      2070 PE      -0.019800
  12417 H21       -35.7670  -27.3350    5.2330 hc      2070 PE      -0.019800
  12418 H22       -36.6570  -28.5350    4.1730 hc      2070 PE      -0.019800
  12419 C1        -34.4870  -29.0150    4.6030 c3      2070 PE       0.039600
  12420 C2        -35.7070  -28.0450    4.4030 c3      2070 PE       0.039600
  12421 H11       -12.5270   40.2650    4.3930 hc      2071 PE      -0.019800
  12422 H12       -11.6570   39.5050    5.7030 hc      2071 PE      -0.019800
  12423 H21       -10.2670   41.2450    4.8330 hc      2071 PE      -0.019800
  12424 H22       -10.2770   40.5350    3.2030 hc      2071 PE      -0.019800
  12425 C1        -11.6670   39.6250    4.6030 c3      2071 PE       0.039600
  12426 C2        -10.3270   40.3050    4.2730 c3      2071 PE       0.039600
  12427 H11        -9.0370   39.2150    5.6530 hc      2072 PE      -0.019800
  12428 H12        -8.9670   38.5850    3.9330 hc      2072 PE      -0.019800
  12429 H21        -7.9270   41.1850    4.8730 hc      2072 PE      -0.019800
  12430 H22        -7.8570   40.7150    3.2730 hc      2072 PE      -0.019800
  12431 C1         -9.0270   39.4550    4.5830 c3      2072 PE       0.039600
  12432 C2         -7.8270   40.2750    4.2730 c3      2072 PE       0.039600
  12433 H11        -6.2970   39.3150    5.4830 hc      2073 PE      -0.019800
  12434 H12        -6.4970   38.6850    3.7930 hc      2073 PE      -0.019800
  12435 H21        -5.3570   41.4750    4.5730 hc      2073 PE      -0.019800
  12436 H22        -5.3570   40.7750    2.9530 hc      2073 PE      -0.019800
  12437 C1         -6.4470   39.5850    4.4230 c3      2073 PE       0.039600
  12438 C2         -5.3370   40.5150    4.0230 c3      2073 PE       0.039600
  12439 H11        -4.0470  -40.3550    5.4630 hc      2074 PE      -0.019800
  12440 H12        -3.7870  -40.9950    3.7930 hc      2074 PE      -0.019800
  12441 H21        -2.8170  -38.2250    4.8730 hc      2074 PE      -0.019800
  12442 H22        -2.7570  -38.6950    3.1930 hc      2074 PE      -0.019800
  12443 C1         -3.9770  -40.0950    4.4030 c3      2074 PE       0.039600
  12444 C2         -2.7470  -39.0950    4.2130 c3      2074 PE       0.039600
  12445 H11        -1.3570  -40.4350    5.2030 hc      2075 PE      -0.019800
  12446 H12        -1.4970  -40.6750    3.5530 hc      2075 PE      -0.019800
  12447 H21        -0.1270  -38.2150    4.7330 hc      2075 PE      -0.019800
  12448 H22        -0.0770  -38.7150    3.0130 hc      2075 PE      -0.019800
  12449 C1         -1.3970  -39.8550    4.2730 c3      2075 PE       0.039600
  12450 C2         -0.1070  -39.0750    4.0530 c3      2075 PE       0.039600
  12451 H11         1.0630  -40.2050    5.3030 hc      2076 PE      -0.019800
  12452 H12         1.3330  -40.6150    3.5330 hc      2076 PE      -0.019800
  12453 H21         2.1130  -37.8950    4.9130 hc      2076 PE      -0.019800
  12454 H22         2.5930  -38.5350    3.3130 hc      2076 PE      -0.019800
  12455 C1          1.1730  -39.8250    4.2830 c3      2076 PE       0.039600
  12456 C2          2.3530  -38.8050    4.3430 c3      2076 PE       0.039600
  12457 H11         4.4430   41.2450    5.0230 hc      2077 PE      -0.019800
  12458 H12         3.4730   40.3450    6.0930 hc      2077 PE      -0.019800
  12459 H21         4.5230   39.7350    3.2330 hc      2077 PE      -0.019800
  12460 H22         3.4530   38.5750    4.0530 hc      2077 PE      -0.019800
  12461 C1          3.6230   40.5150    5.0230 c3      2077 PE       0.039600
  12462 C2          4.1830   39.3850    4.2130 c3      2077 PE       0.039600
  12463 H11         6.0930   39.6450    5.0630 hc      2078 PE      -0.019800
  12464 H12         5.0730   38.3250    5.8930 hc      2078 PE      -0.019800
  12465 H21         6.5630   38.0650    3.1130 hc      2078 PE      -0.019800
  12466 H22         5.4730   36.8650    3.8030 hc      2078 PE      -0.019800
  12467 C1          5.4230   38.7850    4.9530 c3      2078 PE       0.039600
  12468 C2          6.1630   37.6750    4.0530 c3      2078 PE       0.039600
  12469 H11         8.0630   37.9950    4.9430 hc      2079 PE      -0.019800
  12470 H12         7.0530   36.9550    5.9030 hc      2079 PE      -0.019800
  12471 H21         8.7330   35.5550    5.0630 hc      2079 PE      -0.019800
  12472 H22         8.5430   35.8450    3.3730 hc      2079 PE      -0.019800
  12473 C1          7.3330   37.1750    4.8630 c3      2079 PE       0.039600
  12474 C2          7.9930   35.8450    4.3130 c3      2079 PE       0.039600
  12475 H11         6.2430   34.7850    5.1230 hc      2080 PE      -0.019800
  12476 H12         6.3630   34.7150    3.3930 hc      2080 PE      -0.019800
  12477 H21         7.9430   33.0750    5.3530 hc      2080 PE      -0.019800
  12478 H22         8.4930   33.1250    3.8030 hc      2080 PE      -0.019800
  12479 C1          6.9630   34.6950    4.3130 c3      2080 PE       0.039600
  12480 C2          7.5630   33.3050    4.3530 c3      2080 PE       0.039600
  12481 H11         5.8830   32.1350    4.8530 hc      2081 PE      -0.019800
  12482 H12         6.1630   32.4550    3.1230 hc      2081 PE      -0.019800
  12483 H21         7.6830   30.5650    4.9330 hc      2081 PE      -0.019800
  12484 H22         8.2730   30.9250    3.3830 hc      2081 PE      -0.019800
  12485 C1          6.6530   32.1650    4.0630 c3      2081 PE       0.039600
  12486 C2          7.3330   30.8550    3.9330 c3      2081 PE       0.039600
  12487 H11         6.0830   30.3050    2.2830 hc      2082 PE      -0.019800
  12488 H12         6.9430   28.9450    2.9830 hc      2082 PE      -0.019800
  12489 H21         4.7930   30.1850    4.8030 hc      2082 PE      -0.019800
  12490 H22         5.4230   28.5350    4.7530 hc      2082 PE      -0.019800
  12491 C1          6.3830   29.8550    3.2330 c3      2082 PE       0.039600
  12492 C2          5.1330   29.3950    4.1230 c3      2082 PE       0.039600
  12493 H11         3.4730   29.5850    2.6530 hc      2083 PE      -0.019800
  12494 H12         4.2130   28.0250    2.6530 hc      2083 PE      -0.019800
  12495 H21         2.7430   29.2950    4.9630 hc      2083 PE      -0.019800
  12496 H22         3.1930   27.5250    4.7830 hc      2083 PE      -0.019800
  12497 C1          3.8730   28.8150    3.3330 c3      2083 PE       0.039600
  12498 C2          2.7330   28.4050    4.3230 c3      2083 PE       0.039600
  12499 H11         1.0730   28.8850    2.8730 hc      2084 PE      -0.019800
  12500 H12         1.4130   27.3450    2.8230 hc      2084 PE      -0.019800
  12501 H21         0.0230   28.7050    5.2430 hc      2084 PE      -0.019800
  12502 H22         0.2330   26.9750    5.2730 hc      2084 PE      -0.019800
  12503 C1          1.3330   28.1150    3.6130 c3      2084 PE       0.039600
  12504 C2          0.1030   27.8250    4.5930 c3      2084 PE       0.039600
  12505 H11        -1.3170   28.3850    3.0530 hc      2085 PE      -0.019800
  12506 H12        -0.9570   26.6850    3.2030 hc      2085 PE      -0.019800
  12507 H21        -2.6470   28.2750    5.2530 hc      2085 PE      -0.019800
  12508 H22        -2.3070   26.6550    5.4130 hc      2085 PE      -0.019800
  12509 C1         -1.1670   27.5850    3.7930 c3      2085 PE       0.039600
  12510 C2         -2.4470   27.3950    4.6130 c3      2085 PE       0.039600
  12511 H11        -3.6770   27.6850    2.8830 hc      2086 PE      -0.019800
  12512 H12        -3.3470   26.0050    3.2130 hc      2086 PE      -0.019800
  12513 H21        -5.0670   27.9850    4.8630 hc      2086 PE      -0.019800
  12514 H22        -5.0370   26.3550    5.3230 hc      2086 PE      -0.019800
  12515 C1         -3.5970   26.9550    3.7030 c3      2086 PE       0.039600
  12516 C2         -4.9570   26.9850    4.4330 c3      2086 PE       0.039600
  12517 H11        -6.2470   27.6450    2.7430 hc      2087 PE      -0.019800
  12518 H12        -5.8670   25.8550    2.8030 hc      2087 PE      -0.019800
  12519 H21        -7.6370   27.0950    4.8730 hc      2087 PE      -0.019800
  12520 H22        -7.3570   25.4150    4.7030 hc      2087 PE      -0.019800
  12521 C1         -6.1170   26.7550    3.3630 c3      2087 PE       0.039600
  12522 C2         -7.4370   26.3250    4.1030 c3      2087 PE       0.039600
  12523 H11        -8.7870   26.9650    2.5130 hc      2088 PE      -0.019800
  12524 H12        -8.7070   25.2050    2.8230 hc      2088 PE      -0.019800
  12525 H21        -9.9970   27.2150    4.7130 hc      2088 PE      -0.019800
  12526 H22        -9.9070   25.4850    5.0130 hc      2088 PE      -0.019800
  12527 C1         -8.7370   26.1950    3.2930 c3      2088 PE       0.039600
  12528 C2         -9.9670   26.2350    4.2230 c3      2088 PE       0.039600
  12529 H11       -11.4470   27.0350    2.8230 hc      2089 PE      -0.019800
  12530 H12       -11.4270   25.2750    2.8230 hc      2089 PE      -0.019800
  12531 H21       -12.6170   27.0150    4.9930 hc      2089 PE      -0.019800
  12532 H22       -12.4170   25.2850    5.1130 hc      2089 PE      -0.019800
  12533 C1        -11.3570   26.1550    3.4630 c3      2089 PE       0.039600
  12534 C2        -12.5070   26.1050    4.3930 c3      2089 PE       0.039600
  12535 H11       -14.0370   26.5850    2.8730 hc      2090 PE      -0.019800
  12536 H12       -13.7870   24.8750    3.1730 hc      2090 PE      -0.019800
  12537 H21       -15.2170   26.7450    5.3030 hc      2090 PE      -0.019800
  12538 H22       -15.0270   24.9750    5.3530 hc      2090 PE      -0.019800
  12539 C1        -13.8670   25.8550    3.6730 c3      2090 PE       0.039600
  12540 C2        -15.1070   25.8350    4.6930 c3      2090 PE       0.039600
  12541 H11       -16.5570   26.3650    3.1930 hc      2091 PE      -0.019800
  12542 H12       -16.1570   24.6650    3.3030 hc      2091 PE      -0.019800
  12543 H21       -17.8670   26.0450    5.2030 hc      2091 PE      -0.019800
  12544 H22       -17.3970   24.3850    5.3430 hc      2091 PE      -0.019800
  12545 C1        -16.3670   25.5550    3.9130 c3      2091 PE       0.039600
  12546 C2        -17.6070   25.1650    4.6030 c3      2091 PE       0.039600
  12547 H11       -19.0170   25.7750    3.0830 hc      2092 PE      -0.019800
  12548 H12       -18.5470   24.0650    3.0230 hc      2092 PE      -0.019800
  12549 H21       -20.3370   25.3050    5.2730 hc      2092 PE      -0.019800
  12550 H22       -19.8270   23.6650    5.1430 hc      2092 PE      -0.019800
  12551 C1        -18.8570   24.8750    3.6930 c3      2092 PE       0.039600
  12552 C2        -20.0570   24.5450    4.5330 c3      2092 PE       0.039600
  12553 H11       -21.4970   25.0150    3.0330 hc      2093 PE      -0.019800
  12554 H12       -21.0670   23.2850    3.0930 hc      2093 PE      -0.019800
  12555 H21       -22.8170   24.7750    5.1230 hc      2093 PE      -0.019800
  12556 H22       -22.3170   23.0750    5.2430 hc      2093 PE      -0.019800
  12557 C1        -21.2370   24.1850    3.6930 c3      2093 PE       0.039600
  12558 C2        -22.5370   23.8950    4.5430 c3      2093 PE       0.039600
  12559 H11       -24.1570   24.5050    3.3630 hc      2094 PE      -0.019800
  12560 H12       -23.5770   22.8850    2.8230 hc      2094 PE      -0.019800
  12561 H21       -25.4270   23.7150    5.0530 hc      2094 PE      -0.019800
  12562 H22       -24.4770   22.2650    5.2930 hc      2094 PE      -0.019800
  12563 C1        -23.7670   23.5350    3.6830 c3      2094 PE       0.039600
  12564 C2        -24.9470   22.8850    4.5130 c3      2094 PE       0.039600
  12565 H11       -26.5970   22.6150    3.0730 hc      2095 PE      -0.019800
  12566 H12       -25.4670   21.4050    2.9230 hc      2095 PE      -0.019800
  12567 H21       -27.3370   21.6250    5.3930 hc      2095 PE      -0.019800
  12568 H22       -26.1170   20.4050    5.1530 hc      2095 PE      -0.019800
  12569 C1        -25.9770   21.9850    3.7130 c3      2095 PE       0.039600
  12570 C2        -26.7870   21.0850    4.6130 c3      2095 PE       0.039600
  12571 H11       -28.8570   20.9250    3.6830 hc      2096 PE      -0.019800
  12572 H12       -27.6070   19.9850    2.9030 hc      2096 PE      -0.019800
  12573 H21       -28.7070   19.1650    5.6230 hc      2096 PE      -0.019800
  12574 H22       -27.5470   18.3650    4.6630 hc      2096 PE      -0.019800
  12575 C1        -27.9770   20.3050    3.8830 c3      2096 PE       0.039600
  12576 C2        -28.4170   19.0350    4.5730 c3      2096 PE       0.039600
  12577 H11       -30.5370   18.4650    4.6630 hc      2097 PE      -0.019800
  12578 H12       -30.0970   18.9050    3.0530 hc      2097 PE      -0.019800
  12579 H21       -29.1870   16.1250    4.2730 hc      2097 PE      -0.019800
  12580 H22       -28.4170   16.8750    2.9430 hc      2097 PE      -0.019800
  12581 C1        -29.7270   18.3750    3.9330 c3      2097 PE       0.039600
  12582 C2        -29.3470   16.9150    3.5230 c3      2097 PE       0.039600
  12583 H11       -30.6070   16.7550    1.8030 hc      2098 PE      -0.019800
  12584 H12       -30.0570   15.2950    2.2430 hc      2098 PE      -0.019800
  12585 H21       -32.1770   16.9450    3.8430 hc      2098 PE      -0.019800
  12586 H22       -31.4970   15.5350    4.4730 hc      2098 PE      -0.019800
  12587 C1        -30.4470   16.1850    2.7330 c3      2098 PE       0.039600
  12588 C2        -31.7170   16.0050    3.5030 c3      2098 PE       0.039600
  12589 H11       -32.9770   15.7250    1.8430 hc      2099 PE      -0.019800
  12590 H12       -32.2270   14.1850    2.2830 hc      2099 PE      -0.019800
  12591 H21       -33.8670   14.2250    4.4230 hc      2099 PE      -0.019800
  12592 H22       -34.4670   13.8850    2.8230 hc      2099 PE      -0.019800
  12593 C1        -32.7170   15.0750    2.6930 c3      2099 PE       0.039600
  12594 C2        -34.0470   14.6950    3.4530 c3      2099 PE       0.039600
  12595 H11       -34.5870   16.4350    4.3930 hc      2100 PE      -0.019800
  12596 H12       -35.2970   16.3550    2.7030 hc      2100 PE      -0.019800
  12597 H21       -37.1170   16.0050    4.4330 hc      2100 PE      -0.019800
  12598 H22       -36.1670   14.7550    5.2330 hc      2100 PE      -0.019800
  12599 C1        -35.0670   15.8150    3.6230 c3      2100 PE       0.039600
  12600 C2        -36.3570   15.2350    4.2630 c3      2100 PE       0.039600
  12601 H11       -25.7570  -24.7450   -2.6570 hc      2101 PE      -0.019800
  12602 H12       -24.6970  -24.5550   -3.9670 hc      2101 PE      -0.019800
  12603 H21       -26.9070  -25.9350   -4.3670 hc      2101 PE      -0.019800
  12604 H22       -26.5870  -24.8550   -5.6070 hc      2101 PE      -0.019800
  12605 C1        -25.7070  -24.2650   -3.6470 c3      2101 PE       0.039600
  12606 C2        -26.8170  -24.8550   -4.5370 c3      2101 PE       0.039600
  12607 H11       -28.2970  -23.8650   -3.3070 hc      2102 PE      -0.019800
  12608 H12       -28.2470  -23.2950   -4.9870 hc      2102 PE      -0.019800
  12609 H21       -29.3170  -26.0750   -4.4370 hc      2102 PE      -0.019800
  12610 H22       -29.3770  -25.0150   -5.9570 hc      2102 PE      -0.019800
  12611 C1        -28.1670  -24.1850   -4.3570 c3      2102 PE       0.039600
  12612 C2        -29.3870  -25.0750   -4.8570 c3      2102 PE       0.039600
  12613 H11       -30.7370  -24.3750   -3.2970 hc      2103 PE      -0.019800
  12614 H12       -30.7770  -23.3850   -4.7270 hc      2103 PE      -0.019800
  12615 H21       -31.6270  -26.3250   -4.5170 hc      2103 PE      -0.019800
  12616 H22       -31.8670  -25.2350   -5.9770 hc      2103 PE      -0.019800
  12617 C1        -30.7170  -24.4250   -4.3870 c3      2103 PE       0.039600
  12618 C2        -31.8670  -25.3150   -4.8870 c3      2103 PE       0.039600
  12619 H11       -33.1270  -25.1250   -3.1570 hc      2104 PE      -0.019800
  12620 H12       -33.4470  -23.8850   -4.3070 hc      2104 PE      -0.019800
  12621 H21       -34.2370  -26.8650   -4.7170 hc      2104 PE      -0.019800
  12622 H22       -34.4470  -25.6350   -5.8970 hc      2104 PE      -0.019800
  12623 C1        -33.2470  -24.9550   -4.2370 c3      2104 PE       0.039600
  12624 C2        -34.4170  -25.7950   -4.8070 c3      2104 PE       0.039600
  12625 H11       -35.8970  -24.2750   -4.2770 hc      2105 PE      -0.019800
  12626 H12       -36.5970  -25.7350   -4.8470 hc      2105 PE      -0.019800
  12627 H21       -35.2670  -25.5850   -2.0670 hc      2105 PE      -0.019800
  12628 H22       -36.0870  -26.9550   -2.8670 hc      2105 PE      -0.019800
  12629 C1        -35.7770  -25.3650   -4.2170 c3      2105 PE       0.039600
  12630 C2        -36.0770  -25.8650   -2.7470 c3      2105 PE       0.039600
  12631 H11       -37.3770  -24.2950   -1.8670 hc      2106 PE      -0.019800
  12632 H12       -38.3570  -25.3850   -2.9170 hc      2106 PE      -0.019800
  12633 H21       -37.0370  -25.9050   -0.0870 hc      2106 PE      -0.019800
  12634 H22       -37.8970  -27.0550   -1.0770 hc      2106 PE      -0.019800
  12635 C1        -37.5270  -25.3250   -2.2070 c3      2106 PE       0.039600
  12636 C2        -37.8070  -25.9750   -0.8670 c3      2106 PE       0.039600
  12637 H11       -39.2070  -24.4350    0.0530 hc      2107 PE      -0.019800
  12638 H12       -39.9370  -25.5450   -1.0670 hc      2107 PE      -0.019800
  12639 H21       -40.6470  -25.9050    1.3330 hc      2107 PE      -0.019800
  12640 H22       -39.0370  -26.3850    1.7930 hc      2107 PE      -0.019800
  12641 C1        -39.1970  -25.4850   -0.2670 c3      2107 PE       0.039600
  12642 C2        -39.7270  -26.3550    0.9430 c3      2107 PE       0.039600
  12643 H11        40.7230  -28.2350    0.0630 hc      2108 PE      -0.019800
  12644 H12        39.8630  -28.2250    1.6830 hc      2108 PE      -0.019800
  12645 H21        38.3630  -27.4350   -0.7770 hc      2108 PE      -0.019800
  12646 H22        37.7530  -27.7250    0.8130 hc      2108 PE      -0.019800
  12647 C1         39.9330  -27.7950    0.6830 c3      2108 PE       0.039600
  12648 C2         38.5130  -28.0750    0.1030 c3      2108 PE       0.039600
  12649 H11        38.9130  -29.9250   -1.0670 hc      2109 PE      -0.019800
  12650 H12        38.4730  -30.0750    0.6430 hc      2109 PE      -0.019800
  12651 H21        36.0330  -29.5950    0.0230 hc      2109 PE      -0.019800
  12652 H22        36.6530  -31.0750   -0.6470 hc      2109 PE      -0.019800
  12653 C1         38.2030  -29.6050   -0.3070 c3      2109 PE       0.039600
  12654 C2         36.7530  -29.9850   -0.7170 c3      2109 PE       0.039600
  12655 H11        36.4230  -28.3950   -2.2970 hc      2110 PE      -0.019800
  12656 H12        37.1230  -29.8450   -2.8770 hc      2110 PE      -0.019800
  12657 H21        34.2830  -29.5950   -1.9570 hc      2110 PE      -0.019800
  12658 H22        35.1330  -31.0750   -2.5670 hc      2110 PE      -0.019800
  12659 C1         36.3630  -29.4850   -2.1670 c3      2110 PE       0.039600
  12660 C2         35.0330  -29.9950   -2.6670 c3      2110 PE       0.039600
  12661 H11        34.9530  -28.4350   -4.2670 hc      2111 PE      -0.019800
  12662 H12        35.6030  -30.0250   -4.7270 hc      2111 PE      -0.019800
  12663 H21        33.7130  -31.0550   -4.7270 hc      2111 PE      -0.019800
  12664 H22        33.5430  -29.7750   -5.9670 hc      2111 PE      -0.019800
  12665 C1         34.8130  -29.5150   -4.1670 c3      2111 PE       0.039600
  12666 C2         33.5230  -29.9850   -4.8870 c3      2111 PE       0.039600
  12667 H11        32.2030  -29.8950   -3.1470 hc      2112 PE      -0.019800
  12668 H12        32.0530  -28.5250   -4.2070 hc      2112 PE      -0.019800
  12669 H21        30.9730  -31.3150   -4.6470 hc      2112 PE      -0.019800
  12670 H22        30.8930  -30.0450   -5.9270 hc      2112 PE      -0.019800
  12671 C1         32.1730  -29.6150   -4.2070 c3      2112 PE       0.039600
  12672 C2         30.8930  -30.2450   -4.8470 c3      2112 PE       0.039600
  12673 H11        29.7030  -29.8150   -3.1270 hc      2113 PE      -0.019800
  12674 H12        29.3330  -28.7950   -4.5570 hc      2113 PE      -0.019800
  12675 H21        28.7330  -31.7650   -4.4270 hc      2113 PE      -0.019800
  12676 H22        28.3830  -30.5950   -5.6570 hc      2113 PE      -0.019800
  12677 C1         29.6230  -29.7950   -4.2270 c3      2113 PE       0.039600
  12678 C2         28.4530  -30.7150   -4.5670 c3      2113 PE       0.039600
  12679 H11        27.2530  -30.5450   -2.7370 hc      2114 PE      -0.019800
  12680 H12        27.0930  -29.1950   -3.8670 hc      2114 PE      -0.019800
  12681 H21        25.9130  -32.0650   -4.2970 hc      2114 PE      -0.019800
  12682 H22        25.9730  -30.7050   -5.5270 hc      2114 PE      -0.019800
  12683 C1         27.1930  -30.2850   -3.7970 c3      2114 PE       0.039600
  12684 C2         25.9730  -30.9750   -4.4570 c3      2114 PE       0.039600
  12685 H11        24.7730  -30.7050   -2.7670 hc      2115 PE      -0.019800
  12686 H12        24.5630  -29.4150   -3.8970 hc      2115 PE      -0.019800
  12687 H21        23.5430  -32.1750   -4.8170 hc      2115 PE      -0.019800
  12688 H22        23.1630  -30.5950   -5.4370 hc      2115 PE      -0.019800
  12689 C1         24.6530  -30.5050   -3.8370 c3      2115 PE       0.039600
  12690 C2         23.3930  -31.1350   -4.5170 c3      2115 PE       0.039600
  12691 H11        22.1230  -31.8650   -2.8370 hc      2116 PE      -0.019800
  12692 H12        22.1930  -30.0550   -3.1070 hc      2116 PE      -0.019800
  12693 H21        21.0730  -32.0550   -5.1770 hc      2116 PE      -0.019800
  12694 H22        20.8430  -30.2950   -5.0770 hc      2116 PE      -0.019800
  12695 C1         22.1830  -31.0550   -3.5670 c3      2116 PE       0.039600
  12696 C2         20.9330  -31.2150   -4.4870 c3      2116 PE       0.039600
  12697 H11        19.8430  -32.1750   -2.9570 hc      2117 PE      -0.019800
  12698 H12        19.4930  -30.4250   -3.1870 hc      2117 PE      -0.019800
  12699 H21        18.5730  -32.7750   -5.0370 hc      2117 PE      -0.019800
  12700 H22        18.3830  -31.0850   -5.3470 hc      2117 PE      -0.019800
  12701 C1         19.6530  -31.3850   -3.6970 c3      2117 PE       0.039600
  12702 C2         18.4130  -31.8150   -4.5270 c3      2117 PE       0.039600
  12703 H11        17.3730  -32.4050   -2.8070 hc      2118 PE      -0.019800
  12704 H12        16.9330  -30.8150   -3.2870 hc      2118 PE      -0.019800
  12705 H21        16.0930  -33.3250   -4.9570 hc      2118 PE      -0.019800
  12706 H22        15.7330  -31.7750   -5.4570 hc      2118 PE      -0.019800
  12707 C1         17.1030  -31.8150   -3.6970 c3      2118 PE       0.039600
  12708 C2         15.8830  -32.3450   -4.5270 c3      2118 PE       0.039600
  12709 H11        14.7430  -33.0250   -2.8470 hc      2119 PE      -0.019800
  12710 H12        14.2430  -31.4250   -3.5270 hc      2119 PE      -0.019800
  12711 H21        13.6530  -34.0550   -4.9770 hc      2119 PE      -0.019800
  12712 H22        13.2530  -32.4550   -5.5170 hc      2119 PE      -0.019800
  12713 C1         14.5830  -32.4450   -3.7670 c3      2119 PE       0.039600
  12714 C2         13.4030  -33.0550   -4.6070 c3      2119 PE       0.039600
  12715 H11        12.1530  -33.3750   -2.7770 hc      2120 PE      -0.019800
  12716 H12        11.8330  -31.9750   -3.4970 hc      2120 PE      -0.019800
  12717 H21        11.1930  -34.6850   -4.8870 hc      2120 PE      -0.019800
  12718 H22        10.8230  -33.0650   -5.6170 hc      2120 PE      -0.019800
  12719 C1         12.0830  -33.0050   -3.8070 c3      2120 PE       0.039600
  12720 C2         10.9730  -33.6250   -4.6870 c3      2120 PE       0.039600
  12721 H11         9.9030  -33.9350   -2.8870 hc      2121 PE      -0.019800
  12722 H12         9.2930  -32.6650   -3.7770 hc      2121 PE      -0.019800
  12723 H21         9.1630  -35.5450   -4.8670 hc      2121 PE      -0.019800
  12724 H22         8.3130  -34.1650   -5.5170 hc      2121 PE      -0.019800
  12725 C1          9.6530  -33.6950   -3.9270 c3      2121 PE       0.039600
  12726 C2          8.6330  -34.6350   -4.5770 c3      2121 PE       0.039600
  12727 H11         6.9030  -34.3750   -3.1470 hc      2122 PE      -0.019800
  12728 H12         6.6730  -35.2250   -4.6370 hc      2122 PE      -0.019800
  12729 H21         7.6330  -37.3250   -3.4870 hc      2122 PE      -0.019800
  12730 H22         6.6330  -36.5950   -2.2170 hc      2122 PE      -0.019800
  12731 C1          7.3730  -35.1150   -3.8070 c3      2122 PE       0.039600
  12732 C2          7.5230  -36.4450   -2.8270 c3      2122 PE       0.039600
  12733 H11         8.7630  -37.4650   -1.3970 hc      2123 PE      -0.019800
  12734 H12         9.6330  -36.3750   -2.4770 hc      2123 PE      -0.019800
  12735 H21         7.7930  -35.7350   -0.0470 hc      2123 PE      -0.019800
  12736 H22         8.3630  -34.4050   -1.2070 hc      2123 PE      -0.019800
  12737 C1          8.7130  -36.4850   -1.8870 c3      2123 PE       0.039600
  12738 C2          8.5330  -35.4050   -0.7870 c3      2123 PE       0.039600
  12739 H11         9.6430  -34.8250    1.0130 hc      2124 PE      -0.019800
  12740 H12        10.0230  -36.4650    0.4330 hc      2124 PE      -0.019800
  12741 H21        10.9930  -33.7150   -0.6870 hc      2124 PE      -0.019800
  12742 H22        11.2230  -35.3850   -1.4170 hc      2124 PE      -0.019800
  12743 C1          9.8730  -35.4250    0.1230 c3      2124 PE       0.039600
  12744 C2         11.1130  -34.7850   -0.5070 c3      2124 PE       0.039600
  12745 H11        12.0830  -34.2050    1.3030 hc      2125 PE      -0.019800
  12746 H12        12.3730  -35.8850    0.8830 hc      2125 PE      -0.019800
  12747 H21        13.5930  -33.5650   -0.8370 hc      2125 PE      -0.019800
  12748 H22        13.6630  -35.2950   -1.1370 hc      2125 PE      -0.019800
  12749 C1         12.2830  -34.8750    0.4530 c3      2125 PE       0.039600
  12750 C2         13.6230  -34.5350   -0.3370 c3      2125 PE       0.039600
  12751 H11        14.5830  -33.9150    1.4030 hc      2126 PE      -0.019800
  12752 H12        14.8630  -35.6550    0.9130 hc      2126 PE      -0.019800
  12753 H21        15.9930  -33.3950   -0.8970 hc      2126 PE      -0.019800
  12754 H22        16.3430  -35.0750   -0.7870 hc      2126 PE      -0.019800
  12755 C1         14.7830  -34.6150    0.5730 c3      2126 PE       0.039600
  12756 C2         16.0930  -34.2050   -0.1670 c3      2126 PE       0.039600
  12757 H11        16.9830  -32.8550    1.2830 hc      2127 PE      -0.019800
  12758 H12        17.3930  -34.5550    1.6330 hc      2127 PE      -0.019800
  12759 H21        18.4330  -32.9350   -0.7770 hc      2127 PE      -0.019800
  12760 H22        18.7730  -34.7050   -0.4170 hc      2127 PE      -0.019800
  12761 C1         17.2530  -33.8250    0.8330 c3      2127 PE       0.039600
  12762 C2         18.5530  -33.7050   -0.0070 c3      2127 PE       0.039600
  12763 H11        19.4030  -32.3050    1.2430 hc      2128 PE      -0.019800
  12764 H12        20.0330  -33.9350    1.5930 hc      2128 PE      -0.019800
  12765 H21        20.8930  -31.9650   -0.6270 hc      2128 PE      -0.019800
  12766 H22        21.1530  -33.6850   -0.9670 hc      2128 PE      -0.019800
  12767 C1         19.8030  -33.2250    0.7930 c3      2128 PE       0.039600
  12768 C2         20.9830  -32.9550   -0.1570 c3      2128 PE       0.039600
  12769 H11        22.2730  -32.1150    1.3530 hc      2129 PE      -0.019800
  12770 H12        22.4230  -33.8150    1.3430 hc      2129 PE      -0.019800
  12771 H21        23.3730  -32.5750   -1.1570 hc      2129 PE      -0.019800
  12772 H22        24.0430  -34.0850   -0.4170 hc      2129 PE      -0.019800
  12773 C1         22.3630  -32.9650    0.6530 c3      2129 PE       0.039600
  12774 C2         23.6430  -33.0850   -0.2170 c3      2129 PE       0.039600
  12775 H11        24.2130  -31.2250    0.7330 hc      2130 PE      -0.019800
  12776 H12        24.9730  -32.6650    1.3730 hc      2130 PE      -0.019800
  12777 H21        26.5430  -32.5350   -0.7470 hc      2130 PE      -0.019800
  12778 H22        26.3630  -30.8550   -0.1170 hc      2130 PE      -0.019800
  12779 C1         24.7230  -32.1450    0.4330 c3      2130 PE       0.039600
  12780 C2         25.8530  -31.7050   -0.5770 c3      2130 PE       0.039600
  12781 H11         3.5630   -0.4350   -8.0670 hc      2131 PE      -0.019800
  12782 H12         4.4330   -0.8050   -6.5770 hc      2131 PE      -0.019800
  12783 H21         5.5430    0.5350   -9.1370 hc      2131 PE      -0.019800
  12784 H22         5.7530   -1.1850   -8.7870 hc      2131 PE      -0.019800
  12785 C1          4.4130   -0.1450   -7.4470 c3      2131 PE       0.039600
  12786 C2          5.6530   -0.1950   -8.3270 c3      2131 PE       0.039600
  12787 H11         6.8630    1.0750   -6.9070 hc      2132 PE      -0.019800
  12788 H12         7.0530   -0.8150   -6.9370 hc      2132 PE      -0.019800
  12789 H21         7.9930    0.8650   -9.4070 hc      2132 PE      -0.019800
  12790 H22         8.2230   -0.7950   -8.9670 hc      2132 PE      -0.019800
  12791 C1          6.8930    0.1250   -7.4670 c3      2132 PE       0.039600
  12792 C2          8.0930    0.2050   -8.5370 c3      2132 PE       0.039600
  12793 H11         9.3430    1.7350   -7.4470 hc      2133 PE      -0.019800
  12794 H12         9.4930    0.0550   -6.9570 hc      2133 PE      -0.019800
  12795 H21        10.6630    1.2350   -9.5870 hc      2133 PE      -0.019800
  12796 H22        10.5930   -0.4950   -9.1470 hc      2133 PE      -0.019800
  12797 C1          9.3730    0.7150   -7.8270 c3      2133 PE       0.039600
  12798 C2         10.6930    0.5250   -8.7570 c3      2133 PE       0.039600
  12799 H11        11.9130    1.8050   -7.5070 hc      2134 PE      -0.019800
  12800 H12        12.0230    0.2650   -7.0070 hc      2134 PE      -0.019800
  12801 H21        13.0530    1.4250   -9.6670 hc      2134 PE      -0.019800
  12802 H22        13.4730   -0.2050   -9.1870 hc      2134 PE      -0.019800
  12803 C1         11.9430    0.8050   -7.9570 c3      2134 PE       0.039600
  12804 C2         13.2330    0.7850   -8.7970 c3      2134 PE       0.039600
  12805 H11        14.1130    2.2850   -7.4370 hc      2135 PE      -0.019800
  12806 H12        14.7430    0.6050   -7.2870 hc      2135 PE      -0.019800
  12807 H21        15.5830    2.5450   -9.5570 hc      2135 PE      -0.019800
  12808 H22        15.9830    0.7950   -9.4370 hc      2135 PE      -0.019800
  12809 C1         14.4530    1.3950   -7.9870 c3      2135 PE       0.039600
  12810 C2         15.7130    1.6950   -8.8770 c3      2135 PE       0.039600
  12811 H11        16.8930    2.9650   -7.5870 hc      2136 PE      -0.019800
  12812 H12        17.1730    1.2450   -7.2770 hc      2136 PE      -0.019800
  12813 H21        18.1230    2.7650   -9.7070 hc      2136 PE      -0.019800
  12814 H22        18.5930    1.1050   -9.4570 hc      2136 PE      -0.019800
  12815 C1         17.0030    1.9850   -8.0670 c3      2136 PE       0.039600
  12816 C2         18.3330    2.0350   -8.9270 c3      2136 PE       0.039600
  12817 H11        19.3630    3.5950   -7.8670 hc      2137 PE      -0.019800
  12818 H12        19.5530    1.9350   -7.2070 hc      2137 PE      -0.019800
  12819 H21        20.5230    3.1550   -9.8670 hc      2137 PE      -0.019800
  12820 H22        20.7930    1.5250   -9.5370 hc      2137 PE      -0.019800
  12821 C1         19.4830    2.5350   -8.1270 c3      2137 PE       0.039600
  12822 C2         20.6930    2.4850   -9.0170 c3      2137 PE       0.039600
  12823 H11        21.8030    3.9750   -7.6670 hc      2138 PE      -0.019800
  12824 H12        22.1730    2.1950   -7.4370 hc      2138 PE      -0.019800
  12825 H21        22.9430    3.9450   -9.7870 hc      2138 PE      -0.019800
  12826 H22        23.2230    2.1250   -9.4170 hc      2138 PE      -0.019800
  12827 C1         21.9530    3.0050   -8.1370 c3      2138 PE       0.039600
  12828 C2         23.1430    3.1550   -9.0470 c3      2138 PE       0.039600
  12829 H11        24.2330    4.4950   -7.6070 hc      2139 PE      -0.019800
  12830 H12        24.7030    2.7550   -7.5470 hc      2139 PE      -0.019800
  12831 H21        25.5530    4.5550   -9.6570 hc      2139 PE      -0.019800
  12832 H22        25.8030    2.7550   -9.4770 hc      2139 PE      -0.019800
  12833 C1         24.3730    3.5850   -8.1970 c3      2139 PE       0.039600
  12834 C2         25.6230    3.7050   -8.9670 c3      2139 PE       0.039600
  12835 H11        26.6330    5.0250   -7.6170 hc      2140 PE      -0.019800
  12836 H12        27.0130    3.2950   -7.3270 hc      2140 PE      -0.019800
  12837 H21        27.7930    5.0650   -9.6770 hc      2140 PE      -0.019800
  12838 H22        28.3630    3.4350   -9.4370 hc      2140 PE      -0.019800
  12839 C1         26.8830    4.0750   -8.0870 c3      2140 PE       0.039600
  12840 C2         28.0730    4.3450   -8.9070 c3      2140 PE       0.039600
  12841 H11        29.0430    5.7850   -7.5470 hc      2141 PE      -0.019800
  12842 H12        29.3630    4.1350   -7.1770 hc      2141 PE      -0.019800
  12843 H21        30.3830    5.7450   -9.6070 hc      2141 PE      -0.019800
  12844 H22        30.8630    4.0650   -9.3270 hc      2141 PE      -0.019800
  12845 C1         29.2530    4.8250   -8.0270 c3      2141 PE       0.039600
  12846 C2         30.5830    4.9950   -8.8270 c3      2141 PE       0.039600
  12847 H11        31.2930    6.4750   -7.2670 hc      2142 PE      -0.019800
  12848 H12        32.0430    4.8750   -7.1970 hc      2142 PE      -0.019800
  12849 H21        32.2430    7.0450   -9.3770 hc      2142 PE      -0.019800
  12850 H22        33.2930    5.6450   -9.3470 hc      2142 PE      -0.019800
  12851 C1         31.6630    5.6450   -7.8870 c3      2142 PE       0.039600
  12852 C2         32.7230    6.3250   -8.7070 c3      2142 PE       0.039600
  12853 H11        33.3230    7.9850   -7.5270 hc      2143 PE      -0.019800
  12854 H12        33.9130    6.4350   -6.8370 hc      2143 PE      -0.019800
  12855 H21        34.8730    7.7850   -9.4970 hc      2143 PE      -0.019800
  12856 H22        35.4530    6.2550   -8.8270 hc      2143 PE      -0.019800
  12857 C1         33.7130    6.9850   -7.7570 c3      2143 PE       0.039600
  12858 C2         35.0130    7.2250   -8.5570 c3      2143 PE       0.039600
  12859 H11        35.5730    8.6250   -6.9570 hc      2144 PE      -0.019800
  12860 H12        36.6930    7.3450   -7.1170 hc      2144 PE      -0.019800
  12861 H21        36.5030    9.4050   -9.4670 hc      2144 PE      -0.019800
  12862 H22        37.7030    8.2850   -9.1970 hc      2144 PE      -0.019800
  12863 C1         36.1030    8.0550   -7.7270 c3      2144 PE       0.039600
  12864 C2         37.0730    8.9750   -8.6370 c3      2144 PE       0.039600
  12865 H11        37.2930   10.3550   -6.9870 hc      2145 PE      -0.019800
  12866 H12        38.8230    9.5850   -7.5070 hc      2145 PE      -0.019800
  12867 H21        37.4130   11.8350   -8.9270 hc      2145 PE      -0.019800
  12868 H22        38.6730   10.9550   -9.7170 hc      2145 PE      -0.019800
  12869 C1         37.9030   10.0650   -7.8470 c3      2145 PE       0.039600
  12870 C2         38.3430   11.2950   -8.7270 c3      2145 PE       0.039600
  12871 H11       -40.8270   12.3750   -7.0670 hc      2146 PE      -0.019800
  12872 H12       -39.5970   11.9150   -8.3570 hc      2146 PE      -0.019800
  12873 H21       -40.8770   13.4850   -9.8570 hc      2146 PE      -0.019800
  12874 H22       -39.7470   14.2250   -8.7670 hc      2146 PE      -0.019800
  12875 C1        -40.6070   12.2650   -8.1370 c3      2146 PE       0.039600
  12876 C2        -40.6870   13.6550   -8.7970 c3      2146 PE       0.039600
  12877 H11        37.4130   13.7850   -7.6870 hc      2147 PE      -0.019800
  12878 H12        38.4630   14.9450   -7.2370 hc      2147 PE      -0.019800
  12879 H21        36.8830   14.7650   -9.7770 hc      2147 PE      -0.019800
  12880 H22        38.0930   16.0550   -9.5370 hc      2147 PE      -0.019800
  12881 C1         38.1430   14.4550   -8.1670 c3      2147 PE       0.039600
  12882 C2         37.3730   15.4050   -9.0270 c3      2147 PE       0.039600
  12883 H11        35.5430   15.5950   -7.8070 hc      2148 PE      -0.019800
  12884 H12        36.8230   16.7550   -7.3870 hc      2148 PE      -0.019800
  12885 H21        35.0730   16.8950   -9.8770 hc      2148 PE      -0.019800
  12886 H22        36.4430   17.9650   -9.4570 hc      2148 PE      -0.019800
  12887 C1         36.3430   16.2250   -8.2170 c3      2148 PE       0.039600
  12888 C2         35.6530   17.3250   -9.0370 c3      2148 PE       0.039600
  12889 H11        34.0630   17.5350   -7.5170 hc      2149 PE      -0.019800
  12890 H12        35.4330   18.5850   -7.3270 hc      2149 PE      -0.019800
  12891 H21        33.3830   18.9350   -9.5570 hc      2149 PE      -0.019800
  12892 H22        34.6530   20.0150   -9.3570 hc      2149 PE      -0.019800
  12893 C1         34.7430   18.1850   -8.0770 c3      2149 PE       0.039600
  12894 C2         33.9830   19.3850   -8.7570 c3      2149 PE       0.039600
  12895 H11        32.3030   19.4250   -7.4170 hc      2150 PE      -0.019800
  12896 H12        33.5430   20.6350   -7.0070 hc      2150 PE      -0.019800
  12897 H21        31.5130   20.5750   -9.2770 hc      2150 PE      -0.019800
  12898 H22        32.8930   21.7250   -9.2970 hc      2150 PE      -0.019800
  12899 C1         33.0030   20.1650   -7.8270 c3      2150 PE       0.039600
  12900 C2         32.2030   21.1650   -8.6570 c3      2150 PE       0.039600
  12901 H11        30.6430   21.6550   -7.1170 hc      2151 PE      -0.019800
  12902 H12        32.1130   22.7250   -7.1870 hc      2151 PE      -0.019800
  12903 H21        29.8530   22.5550   -9.2170 hc      2151 PE      -0.019800
  12904 H22        31.3030   23.5250   -9.5270 hc      2151 PE      -0.019800
  12905 C1         31.3630   22.1750   -7.7670 c3      2151 PE       0.039600
  12906 C2         30.6330   23.1550   -8.7370 c3      2151 PE       0.039600
  12907 H11        29.2830   23.6750   -7.1270 hc      2152 PE      -0.019800
  12908 H12        30.5130   24.9550   -7.4170 hc      2152 PE      -0.019800
  12909 H21        28.0030   24.2650   -8.9070 hc      2152 PE      -0.019800
  12910 H22        29.3030   25.0150   -9.8170 hc      2152 PE      -0.019800
  12911 C1         29.8530   24.2150   -7.8870 c3      2152 PE       0.039600
  12912 C2         28.8530   24.9550   -8.8170 c3      2152 PE       0.039600
  12913 H11        27.9330   26.1750   -7.1970 hc      2153 PE      -0.019800
  12914 H12        29.4130   26.8350   -7.7470 hc      2153 PE      -0.019800
  12915 H21        26.9130   26.5450   -9.5170 hc      2153 PE      -0.019800
  12916 H22        28.2330   27.6950   -9.8670 hc      2153 PE      -0.019800
  12917 C1         28.5130   26.3350   -8.1170 c3      2153 PE       0.039600
  12918 C2         27.6430   27.2250   -9.0670 c3      2153 PE       0.039600
  12919 H11        26.2130   27.9850   -7.7370 hc      2154 PE      -0.019800
  12920 H12        27.5430   28.9850   -7.6770 hc      2154 PE      -0.019800
  12921 H21        25.3330   28.8350   -9.8370 hc      2154 PE      -0.019800
  12922 H22        26.8130   29.6550  -10.1370 hc      2154 PE      -0.019800
  12923 C1         26.9330   28.4550   -8.4170 c3      2154 PE       0.039600
  12924 C2         26.1230   29.3950   -9.3170 c3      2154 PE       0.039600
  12925 H11        24.8930   30.0750   -7.6170 hc      2155 PE      -0.019800
  12926 H12        26.1830   31.0850   -8.0270 hc      2155 PE      -0.019800
  12927 H21        23.7230   30.7150   -9.9370 hc      2155 PE      -0.019800
  12928 H22        24.8330   32.0250  -10.0770 hc      2155 PE      -0.019800
  12929 C1         25.3930   30.4950   -8.4970 c3      2155 PE       0.039600
  12930 C2         24.3430   31.3950   -9.3370 c3      2155 PE       0.039600
  12931 H11        22.9030   31.7950   -7.6970 hc      2156 PE      -0.019800
  12932 H12        24.3030   32.9650   -7.8870 hc      2156 PE      -0.019800
  12933 H21        21.8030   32.8050   -9.6070 hc      2156 PE      -0.019800
  12934 H22        23.1730   33.8450   -9.9470 hc      2156 PE      -0.019800
  12935 C1         23.5630   32.3250   -8.3870 c3      2156 PE       0.039600
  12936 C2         22.6530   33.3150   -9.1370 c3      2156 PE       0.039600
  12937 H11        21.3230   33.7450   -7.5570 hc      2157 PE      -0.019800
  12938 H12        22.6930   34.8650   -7.7770 hc      2157 PE      -0.019800
  12939 H21        20.2430   34.9250   -9.6370 hc      2157 PE      -0.019800
  12940 H22        21.8030   35.8250   -9.8170 hc      2157 PE      -0.019800
  12941 C1         21.9030   34.3150   -8.3070 c3      2157 PE       0.039600
  12942 C2         21.1030   35.3550   -9.1170 c3      2157 PE       0.039600
  12943 H11        19.8130   35.9550   -7.3770 hc      2158 PE      -0.019800
  12944 H12        21.2130   36.9950   -7.6570 hc      2158 PE      -0.019800
  12945 H21        19.0230   36.8950   -9.7170 hc      2158 PE      -0.019800
  12946 H22        20.3130   38.0650   -9.7070 hc      2158 PE      -0.019800
  12947 C1         20.4230   36.4150   -8.1570 c3      2158 PE       0.039600
  12948 C2         19.7030   37.4350   -9.0470 c3      2158 PE       0.039600
  12949 H11        18.0430   37.7050   -7.6070 hc      2159 PE      -0.019800
  12950 H12        19.4630   38.7750   -7.2970 hc      2159 PE      -0.019800
  12951 H21        17.4930   38.9450   -9.5870 hc      2159 PE      -0.019800
  12952 H22        18.9130   39.9750   -9.5070 hc      2159 PE      -0.019800
  12953 C1         18.8230   38.3150   -8.0570 c3      2159 PE       0.039600
  12954 C2         18.1630   39.4650   -8.8870 c3      2159 PE       0.039600
  12955 H11        16.8330  -40.1250   -7.2370 hc      2160 PE      -0.019800
  12956 H12        18.1430  -38.9850   -7.4370 hc      2160 PE      -0.019800
  12957 H21        16.7230  -37.9850   -9.3070 hc      2160 PE      -0.019800
  12958 H22        15.6630  -39.4050   -9.4470 hc      2160 PE      -0.019800
  12959 C1         17.3630  -39.5250   -7.9870 c3      2160 PE       0.039600
  12960 C2         16.2430  -38.8050   -8.7470 c3      2160 PE       0.039600
  12961 H11        10.6130   25.5650   -8.5370 hc      2161 PE      -0.019800
  12962 H12        11.0930   27.0950   -9.4170 hc      2161 PE      -0.019800
  12963 H21         8.3530   26.4950   -7.9370 hc      2161 PE      -0.019800
  12964 H22         8.6030   26.7450   -9.6970 hc      2161 PE      -0.019800
  12965 C1         10.4530   26.6450   -8.6470 c3      2161 PE       0.039600
  12966 C2          8.9530   27.0250   -8.6970 c3      2161 PE       0.039600
  12967 H11         8.8930   28.9550   -7.6170 hc      2162 PE      -0.019800
  12968 H12         9.1930   28.9450   -9.4570 hc      2162 PE      -0.019800
  12969 H21         6.5030   28.1750   -8.0870 hc      2162 PE      -0.019800
  12970 H22         6.6630   28.5950   -9.7870 hc      2162 PE      -0.019800
  12971 C1          8.6230   28.5650   -8.6070 c3      2162 PE       0.039600
  12972 C2          7.0430   28.8250   -8.7870 c3      2162 PE       0.039600
  12973 H11         7.3230   30.8150   -7.7470 hc      2163 PE      -0.019800
  12974 H12         6.6330   30.9250   -9.4670 hc      2163 PE      -0.019800
  12975 H21         5.0630   30.0750   -6.9170 hc      2163 PE      -0.019800
  12976 H22         4.5930   29.5950   -8.5170 hc      2163 PE      -0.019800
  12977 C1          6.6930   30.3650   -8.5270 c3      2163 PE       0.039600
  12978 C2          5.1730   30.3550   -7.9770 c3      2163 PE       0.039600
  12979 H11         4.7630   32.4950   -7.4370 hc      2164 PE      -0.019800
  12980 H12         4.7130   32.1650   -9.1270 hc      2164 PE      -0.019800
  12981 H21         2.6030   31.2350   -7.1270 hc      2164 PE      -0.019800
  12982 H22         2.5030   31.1450   -8.9070 hc      2164 PE      -0.019800
  12983 C1          4.4930   31.7050   -8.1470 c3      2164 PE       0.039600
  12984 C2          2.9030   31.7150   -8.0670 c3      2164 PE       0.039600
  12985 H11         2.6430   33.7650   -7.3370 hc      2165 PE      -0.019800
  12986 H12         2.5830   33.5350   -9.1570 hc      2165 PE      -0.019800
  12987 H21         0.4430   32.5650   -7.2770 hc      2165 PE      -0.019800
  12988 H22         0.4230   32.5450   -9.0270 hc      2165 PE      -0.019800
  12989 C1          2.3630   33.1050   -8.1670 c3      2165 PE       0.039600
  12990 C2          0.8230   33.0850   -8.1670 c3      2165 PE       0.039600
  12991 H11         0.7030   35.0250   -7.1870 hc      2166 PE      -0.019800
  12992 H12         0.5830   35.1150   -8.8970 hc      2166 PE      -0.019800
  12993 H21        -1.7570   33.9350   -7.1870 hc      2166 PE      -0.019800
  12994 H22        -1.6270   33.9050   -8.9570 hc      2166 PE      -0.019800
  12995 C1          0.2030   34.5450   -8.0370 c3      2166 PE       0.039600
  12996 C2         -1.3670   34.4850   -8.0570 c3      2166 PE       0.039600
  12997 H11        -1.7170   36.5550   -7.4270 hc      2167 PE      -0.019800
  12998 H12        -1.6170   36.3950   -9.2070 hc      2167 PE      -0.019800
  12999 H21        -3.8270   35.3150   -7.4570 hc      2167 PE      -0.019800
  13000 H22        -3.8770   35.3750   -9.1870 hc      2167 PE      -0.019800
  13001 C1         -2.0170   35.9450   -8.2870 c3      2167 PE       0.039600
  13002 C2         -3.5570   35.9450   -8.3070 c3      2167 PE       0.039600
  13003 H11        -3.7170   37.7850   -7.4170 hc      2168 PE      -0.019800
  13004 H12        -3.8070   37.7550   -9.2670 hc      2168 PE      -0.019800
  13005 H21        -5.8570   36.7750   -7.1870 hc      2168 PE      -0.019800
  13006 H22        -6.0170   36.7450   -8.9670 hc      2168 PE      -0.019800
  13007 C1         -4.1270   37.3050   -8.3170 c3      2168 PE       0.039600
  13008 C2         -5.6170   37.3150   -8.1170 c3      2168 PE       0.039600
  13009 H11        -6.1170   39.1650   -7.1570 hc      2169 PE      -0.019800
  13010 H12        -5.6970   39.2750   -8.8870 hc      2169 PE      -0.019800
  13011 H21        -8.4070   38.0750   -7.9270 hc      2169 PE      -0.019800
  13012 H22        -8.0270   38.4650   -9.5670 hc      2169 PE      -0.019800
  13013 C1         -6.2570   38.6950   -8.1370 c3      2169 PE       0.039600
  13014 C2         -7.7470   38.7150   -8.5370 c3      2169 PE       0.039600
  13015 H11        -8.1470  -39.4550   -7.4370 hc      2170 PE      -0.019800
  13016 H12        -7.6770  -39.2850   -9.1870 hc      2170 PE      -0.019800
  13017 H21       -10.4270  -40.3150   -8.0670 hc      2170 PE      -0.019800
  13018 H22        -9.9170  -39.9750   -9.8070 hc      2170 PE      -0.019800
  13019 C1         -8.2670  -39.8550   -8.4570 c3      2170 PE       0.039600
  13020 C2         -9.8370  -39.6950   -8.7570 c3      2170 PE       0.039600
  13021 H11        -9.5070  -37.5150   -8.9670 hc      2171 PE      -0.019800
  13022 H12       -11.1670  -38.0250   -9.0770 hc      2171 PE      -0.019800
  13023 H21       -10.4970  -36.6950   -7.1070 hc      2171 PE      -0.019800
  13024 H22        -9.4670  -37.9850   -6.4370 hc      2171 PE      -0.019800
  13025 C1        -10.2370  -38.2050   -8.5270 c3      2171 PE       0.039600
  13026 C2        -10.3370  -37.7750   -7.0670 c3      2171 PE       0.039600
  13027 H11       -12.3670  -38.3650   -7.1770 hc      2172 PE      -0.019800
  13028 H12       -11.4670  -39.5650   -6.3670 hc      2172 PE      -0.019800
  13029 H21       -12.2370  -36.7050   -5.2670 hc      2172 PE      -0.019800
  13030 H22       -11.3670  -37.8250   -4.3370 hc      2172 PE      -0.019800
  13031 C1        -11.6070  -38.4750   -6.3870 c3      2172 PE       0.039600
  13032 C2        -12.1470  -37.7850   -5.1070 c3      2172 PE       0.039600
  13033 H11       -14.0770  -38.4550   -5.4370 hc      2173 PE      -0.019800
  13034 H12       -13.1270  -39.4950   -4.3970 hc      2173 PE      -0.019800
  13035 H21       -13.9770  -36.6150   -3.6570 hc      2173 PE      -0.019800
  13036 H22       -13.1270  -37.7250   -2.5970 hc      2173 PE      -0.019800
  13037 C1        -13.3370  -38.4450   -4.6270 c3      2173 PE       0.039600
  13038 C2        -13.8870  -37.6750   -3.3870 c3      2173 PE       0.039600
  13039 H11       -15.8470  -37.6750   -3.9170 hc      2174 PE      -0.019800
  13040 H12       -15.2770  -39.1450   -2.9570 hc      2174 PE      -0.019800
  13041 H21       -15.6470  -36.3050   -1.8670 hc      2174 PE      -0.019800
  13042 H22       -15.2170  -37.8050   -0.9570 hc      2174 PE      -0.019800
  13043 C1        -15.2670  -38.0550   -3.0670 c3      2174 PE       0.039600
  13044 C2        -15.8370  -37.3750   -1.7470 c3      2174 PE       0.039600
  13045 H11       -17.9670  -37.2750   -2.3470 hc      2175 PE      -0.019800
  13046 H12       -17.5170  -38.6750   -1.4170 hc      2175 PE      -0.019800
  13047 H21       -17.7170  -35.9050   -0.1870 hc      2175 PE      -0.019800
  13048 H22       -17.3570  -37.2950    0.7230 hc      2175 PE      -0.019800
  13049 C1        -17.3570  -37.5850   -1.4870 c3      2175 PE       0.039600
  13050 C2        -17.8870  -36.9950   -0.1870 c3      2175 PE       0.039600
  13051 H11       -19.6270  -36.2450    0.9030 hc      2176 PE      -0.019800
  13052 H12       -20.0570  -36.6450   -0.6670 hc      2176 PE      -0.019800
  13053 H21       -19.5070  -38.3850    1.7530 hc      2176 PE      -0.019800
  13054 H22       -19.6170  -39.1350    0.1330 hc      2176 PE      -0.019800
  13055 C1        -19.4070  -36.9950    0.1430 c3      2176 PE       0.039600
  13056 C2        -19.9470  -38.2950    0.7530 c3      2176 PE       0.039600
  13057 H11       -21.9370  -37.2850    1.0430 hc      2177 PE      -0.019800
  13058 H12       -21.8070  -38.4350   -0.3270 hc      2177 PE      -0.019800
  13059 H21       -21.9670  -39.2650    2.4930 hc      2177 PE      -0.019800
  13060 H22       -21.9070  -40.3550    1.1030 hc      2177 PE      -0.019800
  13061 C1        -21.5670  -38.2650    0.7230 c3      2177 PE       0.039600
  13062 C2        -22.3170  -39.4050    1.4530 c3      2177 PE       0.039600
  13063 H11       -24.2970   41.5350    1.3730 hc      2178 PE      -0.019800
  13064 H12       -24.0570   39.9650    0.4130 hc      2178 PE      -0.019800
  13065 H21       -24.1070   40.1250    3.4530 hc      2178 PE      -0.019800
  13066 H22       -23.8970   38.6950    2.3930 hc      2178 PE      -0.019800
  13067 C1        -23.8670   40.5250    1.3330 c3      2178 PE       0.039600
  13068 C2        -24.3870   39.6750    2.4930 c3      2178 PE       0.039600
  13069 H11       -25.9670   38.9150    1.4930 hc      2179 PE      -0.019800
  13070 H12       -26.1070   38.7150    3.3130 hc      2179 PE      -0.019800
  13071 H21       -26.6370   41.3050    1.8330 hc      2179 PE      -0.019800
  13072 H22       -26.6070   41.0750    3.4930 hc      2179 PE      -0.019800
  13073 C1        -25.8970   39.3950    2.4730 c3      2179 PE       0.039600
  13074 C2        -26.8270   40.5150    2.5730 c3      2179 PE       0.039600
  13075 H11       -28.6470  -40.0050    1.6030 hc      2180 PE      -0.019800
  13076 H12       -28.4470  -40.8750    3.1330 hc      2180 PE      -0.019800
  13077 H21       -29.4670  -38.0350    2.3830 hc      2180 PE      -0.019800
  13078 H22       -28.7970  -38.1450    4.0030 hc      2180 PE      -0.019800
  13079 C1        -28.2870  -39.9150    2.6430 c3      2180 PE       0.039600
  13080 C2        -29.2070  -38.7450    3.1830 c3      2180 PE       0.039600
  13081 H11       -31.1370  -39.6950    2.7430 hc      2181 PE      -0.019800
  13082 H12       -30.2970  -40.1950    4.2230 hc      2181 PE      -0.019800
  13083 H21       -30.7070  -37.7850    5.1630 hc      2181 PE      -0.019800
  13084 H22       -32.0670  -38.8850    5.1430 hc      2181 PE      -0.019800
  13085 C1        -30.5670  -39.3250    3.6030 c3      2181 PE       0.039600
  13086 C2        -31.3470  -38.3750    4.4930 c3      2181 PE       0.039600
  13087 H11       -31.6870  -36.7150    3.0030 hc      2182 PE      -0.019800
  13088 H12       -32.8470  -37.9250    2.9430 hc      2182 PE      -0.019800
  13089 H21       -32.6370  -36.0350    5.3030 hc      2182 PE      -0.019800
  13090 H22       -33.9370  -37.2550    4.9330 hc      2182 PE      -0.019800
  13091 C1        -32.2070  -37.4150    3.6730 c3      2182 PE       0.039600
  13092 C2        -33.1570  -36.5950    4.5230 c3      2182 PE       0.039600
  13093 H11       -33.0270  -34.8250    3.4130 hc      2183 PE      -0.019800
  13094 H12       -34.3870  -35.9350    2.9130 hc      2183 PE      -0.019800
  13095 H21       -34.2570  -33.8750    5.3030 hc      2183 PE      -0.019800
  13096 H22       -35.4070  -35.2450    5.1730 hc      2183 PE      -0.019800
  13097 C1        -33.8370  -35.4650    3.7530 c3      2183 PE       0.039600
  13098 C2        -34.7670  -34.5550    4.6130 c3      2183 PE       0.039600
  13099 H11       -34.9870  -33.0850    2.9830 hc      2184 PE      -0.019800
  13100 H12       -36.2270  -34.3550    3.0930 hc      2184 PE      -0.019800
  13101 H21       -36.3770  -32.4650    5.3230 hc      2184 PE      -0.019800
  13102 H22       -37.5870  -33.3750    4.4830 hc      2184 PE      -0.019800
  13103 C1        -35.5670  -33.6950    3.6830 c3      2184 PE       0.039600
  13104 C2        -36.6570  -32.8150    4.3230 c3      2184 PE       0.039600
  13105 H11       -37.1570  -30.7150    4.1630 hc      2185 PE      -0.019800
  13106 H12       -36.0170  -31.1750    3.0130 hc      2185 PE      -0.019800
  13107 H21       -38.9270  -31.6850    2.8330 hc      2185 PE      -0.019800
  13108 H22       -38.0370  -32.7950    1.9730 hc      2185 PE      -0.019800
  13109 C1        -36.9370  -31.5450    3.4830 c3      2185 PE       0.039600
  13110 C2        -37.9570  -31.7550    2.3330 c3      2185 PE       0.039600
  13111 H11       -38.6870  -31.2350    0.4430 hc      2186 PE      -0.019800
  13112 H12       -38.0770  -29.8050    1.3830 hc      2186 PE      -0.019800
  13113 H21       -36.1870  -31.9350    0.1730 hc      2186 PE      -0.019800
  13114 H22       -35.7670  -30.4550    0.9930 hc      2186 PE      -0.019800
  13115 C1        -37.8770  -30.8350    1.0730 c3      2186 PE       0.039600
  13116 C2        -36.5170  -30.8950    0.3330 c3      2186 PE       0.039600
  13117 H11       -36.8370  -30.5550   -1.7370 hc      2187 PE      -0.019800
  13118 H12       -37.0970  -29.1050   -0.7570 hc      2187 PE      -0.019800
  13119 H21       -35.2970  -28.8050   -2.2270 hc      2187 PE      -0.019800
  13120 H22       -34.5770  -30.3950   -1.7970 hc      2187 PE      -0.019800
  13121 C1        -36.4670  -29.9950   -0.8670 c3      2187 PE       0.039600
  13122 C2        -35.0870  -29.5050   -1.4170 c3      2187 PE       0.039600
  13123 H11       -34.9770  -28.0250   -0.0170 hc      2188 PE      -0.019800
  13124 H12       -33.8370  -29.2950    0.3530 hc      2188 PE      -0.019800
  13125 H21       -33.3670  -27.4450   -2.1370 hc      2188 PE      -0.019800
  13126 H22       -32.3670  -28.7550   -1.5070 hc      2188 PE      -0.019800
  13127 C1        -34.2170  -28.6750   -0.4670 c3      2188 PE       0.039600
  13128 C2        -33.0370  -27.9350   -1.2170 c3      2188 PE       0.039600
  13129 H11       -32.7570  -26.2350   -0.0270 hc      2189 PE      -0.019800
  13130 H12       -31.9770  -27.6950    0.6130 hc      2189 PE      -0.019800
  13131 H21       -31.2570  -26.1750   -1.9170 hc      2189 PE      -0.019800
  13132 H22       -30.2370  -27.5150   -1.3670 hc      2189 PE      -0.019800
  13133 C1        -32.1870  -27.1350   -0.2970 c3      2189 PE       0.039600
  13134 C2        -30.9170  -26.7250   -1.0270 c3      2189 PE       0.039600
  13135 H11       -30.7670  -24.7350   -0.0470 hc      2190 PE      -0.019800
  13136 H12       -30.2470  -25.8450    0.9130 hc      2190 PE      -0.019800
  13137 H21       -27.9170  -25.2850   -0.0670 hc      2190 PE      -0.019800
  13138 H22       -28.4170  -26.1750   -1.3270 hc      2190 PE      -0.019800
  13139 C1        -30.1670  -25.6450   -0.1570 c3      2190 PE       0.039600
  13140 C2        -28.7570  -25.2850   -0.7770 c3      2190 PE       0.039600
  13141 H11       -39.3370    9.1550    1.9330 hc      2191 PE      -0.019800
  13142 H12       -40.7170    8.0750    1.7830 hc      2191 PE      -0.019800
  13143 H21       -39.6870    9.3750    4.5130 hc      2191 PE      -0.019800
  13144 H22       -39.4170    7.6850    3.9030 hc      2191 PE      -0.019800
  13145 C1        -40.3170    8.9150    2.3630 c3      2191 PE       0.039600
  13146 C2        -40.1070    8.5450    3.9230 c3      2191 PE       0.039600
  13147 H11        38.0430    7.3550    4.0630 hc      2192 PE      -0.019800
  13148 H12        38.8430    7.5750    5.6330 hc      2192 PE      -0.019800
  13149 H21        37.5030    9.7550    4.0630 hc      2192 PE      -0.019800
  13150 H22        38.3730   10.0250    5.6030 hc      2192 PE      -0.019800
  13151 C1         38.6030    8.0650    4.6830 c3      2192 PE       0.039600
  13152 C2         37.7730    9.3050    5.0230 c3      2192 PE       0.039600
  13153 H11        36.6330    8.4350    6.6730 hc      2193 PE      -0.019800
  13154 H12        36.0830    9.9750    6.0930 hc      2193 PE      -0.019800
  13155 H21        35.8730    7.3750    4.4830 hc      2193 PE      -0.019800
  13156 H22        35.2030    8.9050    3.9930 hc      2193 PE      -0.019800
  13157 C1         36.4330    8.9950    5.7530 c3      2193 PE       0.039600
  13158 C2         35.4030    8.2850    4.8730 c3      2193 PE       0.039600
  13159 H11        34.2030    7.6950    6.6730 hc      2194 PE      -0.019800
  13160 H12        33.7230    9.1150    6.0030 hc      2194 PE      -0.019800
  13161 H21        33.3230    6.2250    4.9930 hc      2194 PE      -0.019800
  13162 H22        33.2130    7.5050    3.8230 hc      2194 PE      -0.019800
  13163 C1         34.0730    8.1250    5.6730 c3      2194 PE       0.039600
  13164 C2         33.0830    7.2950    4.8930 c3      2194 PE       0.039600
  13165 H11        31.5230    7.4050    6.4830 hc      2195 PE      -0.019800
  13166 H12        31.4630    8.6150    5.2730 hc      2195 PE      -0.019800
  13167 H21        31.1430    5.6450    4.5730 hc      2195 PE      -0.019800
  13168 H22        30.7930    6.7750    3.4030 hc      2195 PE      -0.019800
  13169 C1         31.6530    7.5450    5.4030 c3      2195 PE       0.039600
  13170 C2         30.7030    6.6450    4.4830 c3      2195 PE       0.039600
  13171 H11        29.2130    6.0250    5.9630 hc      2196 PE      -0.019800
  13172 H12        28.9430    7.5950    5.4730 hc      2196 PE      -0.019800
  13173 H21        28.5530    5.0150    3.7630 hc      2196 PE      -0.019800
  13174 H22        28.0230    6.6950    3.3430 hc      2196 PE      -0.019800
  13175 C1         29.2830    6.6350    5.0530 c3      2196 PE       0.039600
  13176 C2         28.2130    5.9750    4.1530 c3      2196 PE       0.039600
  13177 H11        26.9730    5.2250    5.8530 hc      2197 PE      -0.019800
  13178 H12        26.4530    6.7950    5.2030 hc      2197 PE      -0.019800
  13179 H21        26.2730    4.0650    3.8930 hc      2197 PE      -0.019800
  13180 H22        25.6330    5.5850    3.0930 hc      2197 PE      -0.019800
  13181 C1         26.8530    5.8150    4.9230 c3      2197 PE       0.039600
  13182 C2         25.8030    5.0550    4.0330 c3      2197 PE       0.039600
  13183 H11        24.5330    4.3650    5.6530 hc      2198 PE      -0.019800
  13184 H12        24.0930    5.9550    5.0430 hc      2198 PE      -0.019800
  13185 H21        23.6630    3.4250    3.3530 hc      2198 PE      -0.019800
  13186 H22        23.0830    5.0950    3.1030 hc      2198 PE      -0.019800
  13187 C1         24.4630    4.9650    4.7430 c3      2198 PE       0.039600
  13188 C2         23.3230    4.3350    3.8530 c3      2198 PE       0.039600
  13189 H11        22.3630    3.1250    5.3030 hc      2199 PE      -0.019800
  13190 H12        21.8330    4.9050    5.2130 hc      2199 PE      -0.019800
  13191 H21        21.0530    2.6350    3.2730 hc      2199 PE      -0.019800
  13192 H22        20.7630    4.3950    3.0630 hc      2199 PE      -0.019800
  13193 C1         22.1030    3.9850    4.6730 c3      2199 PE       0.039600
  13194 C2         20.9230    3.5950    3.7930 c3      2199 PE       0.039600
  13195 H11        19.7330    2.5650    5.4330 hc      2200 PE      -0.019800
  13196 H12        19.5330    4.2450    5.4130 hc      2200 PE      -0.019800
  13197 H21        18.3530    2.3250    3.2230 hc      2200 PE      -0.019800
  13198 H22        18.3730    4.0650    3.1730 hc      2200 PE      -0.019800
  13199 C1         19.6830    3.4050    4.7230 c3      2200 PE       0.039600
  13200 C2         18.3630    3.2150    3.8630 c3      2200 PE       0.039600
  13201 H11        17.1230    2.5350    5.5730 hc      2201 PE      -0.019800
  13202 H12        16.7630    4.1750    4.9530 hc      2201 PE      -0.019800
  13203 H21        16.1630    1.5150    3.6930 hc      2201 PE      -0.019800
  13204 H22        15.8930    3.0850    2.9030 hc      2201 PE      -0.019800
  13205 C1         17.0830    3.1550    4.6730 c3      2201 PE       0.039600
  13206 C2         15.9330    2.5750    3.8730 c3      2201 PE       0.039600
  13207 H11        14.4630    2.0450    5.4730 hc      2202 PE      -0.019800
  13208 H12        14.3330    3.6750    4.8230 hc      2202 PE      -0.019800
  13209 H21        13.6630    1.1150    3.2330 hc      2202 PE      -0.019800
  13210 H22        13.3130    2.7750    2.7430 hc      2202 PE      -0.019800
  13211 C1         14.5330    2.6350    4.5530 c3      2202 PE       0.039600
  13212 C2         13.4230    2.1150    3.6130 c3      2202 PE       0.039600
  13213 H11        12.0030    1.5650    5.2830 hc      2203 PE      -0.019800
  13214 H12        11.7330    3.1450    4.6030 hc      2203 PE      -0.019800
  13215 H21        11.2430    0.4350    3.2130 hc      2203 PE      -0.019800
  13216 H22        10.9330    1.7650    2.3430 hc      2203 PE      -0.019800
  13217 C1         12.0430    2.1250    4.3430 c3      2203 PE       0.039600
  13218 C2         10.9730    1.4850    3.4030 c3      2203 PE       0.039600
  13219 H11         9.5830    0.7250    4.7930 hc      2204 PE      -0.019800
  13220 H12         9.3430    2.5050    4.4130 hc      2204 PE      -0.019800
  13221 H21         8.7130    0.0750    2.6130 hc      2204 PE      -0.019800
  13222 H22         8.6230    1.6750    2.0730 hc      2204 PE      -0.019800
  13223 C1          9.5630    1.5050    4.0230 c3      2204 PE       0.039600
  13224 C2          8.4830    1.0850    2.9830 c3      2204 PE       0.039600
  13225 H11         6.9030    0.6050    4.5830 hc      2205 PE      -0.019800
  13226 H12         6.7830    2.1350    3.7230 hc      2205 PE      -0.019800
  13227 H21         4.9430    0.3350    3.3530 hc      2205 PE      -0.019800
  13228 H22         6.1230   -0.5550    2.3930 hc      2205 PE      -0.019800
  13229 C1          7.0330    1.0750    3.6030 c3      2205 PE       0.039600
  13230 C2          5.8730    0.4450    2.7830 c3      2205 PE       0.039600
  13231 H11         5.1130    2.2750    1.9230 hc      2206 PE      -0.019800
  13232 H12         6.3930    1.6050    1.0230 hc      2206 PE      -0.019800
  13233 H21         3.4130    0.5550    1.3830 hc      2206 PE      -0.019800
  13234 H22         4.6130   -0.3450    0.5630 hc      2206 PE      -0.019800
  13235 C1          5.4930    1.3050    1.5630 c3      2206 PE       0.039600
  13236 C2          4.3030    0.6850    0.7530 c3      2206 PE       0.039600
  13237 H11         3.0630    0.9050   -1.0170 hc      2207 PE      -0.019800
  13238 H12         3.7230    2.4250   -0.6070 hc      2207 PE      -0.019800
  13239 H21         5.4830    0.2750   -1.5570 hc      2207 PE      -0.019800
  13240 H22         5.9230    2.0450   -1.2270 hc      2207 PE      -0.019800
  13241 C1          3.9730    1.3650   -0.6070 c3      2207 PE       0.039600
  13242 C2          5.1730    1.3250   -1.5670 c3      2207 PE       0.039600
  13243 H11         3.9830    1.1550   -3.4270 hc      2208 PE      -0.019800
  13244 H12         4.5430    2.7850   -3.1670 hc      2208 PE      -0.019800
  13245 H21         5.7930    1.7650   -5.0870 hc      2208 PE      -0.019800
  13246 H22         6.3030    0.4450   -4.0870 hc      2208 PE      -0.019800
  13247 C1          4.8530    1.7350   -3.0770 c3      2208 PE       0.039600
  13248 C2          6.0330    1.5050   -4.0470 c3      2208 PE       0.039600
  13249 H11         7.2630    3.2450   -3.1670 hc      2209 PE      -0.019800
  13250 H12         7.8030    1.6650   -2.5970 hc      2209 PE      -0.019800
  13251 H21         8.3830    2.7050   -5.3270 hc      2209 PE      -0.019800
  13252 H22         8.4830    1.0550   -4.7270 hc      2209 PE      -0.019800
  13253 C1          7.3830    2.1950   -3.4570 c3      2209 PE       0.039600
  13254 C2          8.5030    2.1150   -4.4170 c3      2209 PE       0.039600
  13255 H11         9.8430    3.3150   -3.2270 hc      2210 PE      -0.019800
  13256 H12        10.0030    1.5750   -3.1070 hc      2210 PE      -0.019800
  13257 H21        10.9830    2.9050   -5.5770 hc      2210 PE      -0.019800
  13258 H22        11.2830    1.1750   -4.9970 hc      2210 PE      -0.019800
  13259 C1          9.8730    2.3950   -3.8270 c3      2210 PE       0.039600
  13260 C2         11.0830    2.2150   -4.7270 c3      2210 PE       0.039600
  13261 H11        12.0430    3.7550   -3.6570 hc      2211 PE      -0.019800
  13262 H12        12.4830    2.0550   -3.1070 hc      2211 PE      -0.019800
  13263 H21        13.3830    3.5350   -5.6070 hc      2211 PE      -0.019800
  13264 H22        13.8130    1.9150   -5.1770 hc      2211 PE      -0.019800
  13265 C1         12.3330    2.7350   -3.9470 c3      2211 PE       0.039600
  13266 C2         13.5530    2.8850   -4.7370 c3      2211 PE       0.039600
  13267 H11        14.5830    4.3650   -3.4570 hc      2212 PE      -0.019800
  13268 H12        14.8630    2.6950   -3.0070 hc      2212 PE      -0.019800
  13269 H21        15.9130    4.0150   -5.5570 hc      2212 PE      -0.019800
  13270 H22        16.3830    2.4050   -5.0470 hc      2212 PE      -0.019800
  13271 C1         14.7730    3.3650   -3.8770 c3      2212 PE       0.039600
  13272 C2         16.1330    3.4050   -4.6670 c3      2212 PE       0.039600
  13273 H11        17.1730    4.7550   -3.2070 hc      2213 PE      -0.019800
  13274 H12        17.6030    3.0750   -3.0270 hc      2213 PE      -0.019800
  13275 H21        18.3430    4.7650   -5.4770 hc      2213 PE      -0.019800
  13276 H22        18.9830    3.1550   -4.9970 hc      2213 PE      -0.019800
  13277 C1         17.3430    3.8350   -3.7770 c3      2213 PE       0.039600
  13278 C2         18.6130    4.1250   -4.6270 c3      2213 PE       0.039600
  13279 H11        19.4430    5.6750   -3.4670 hc      2214 PE      -0.019800
  13280 H12        20.1430    4.0450   -3.0470 hc      2214 PE      -0.019800
  13281 H21        20.9230    5.7950   -5.4770 hc      2214 PE      -0.019800
  13282 H22        21.3530    4.1050   -5.3370 hc      2214 PE      -0.019800
  13283 C1         19.8030    4.7050   -3.8470 c3      2214 PE       0.039600
  13284 C2         21.0830    4.9950   -4.7470 c3      2214 PE       0.039600
  13285 H11        21.8530    6.1950   -3.1170 hc      2215 PE      -0.019800
  13286 H12        22.5230    4.5250   -3.1470 hc      2215 PE      -0.019800
  13287 H21        23.2430    6.6850   -5.1770 hc      2215 PE      -0.019800
  13288 H22        23.7130    5.0850   -5.2270 hc      2215 PE      -0.019800
  13289 C1         22.2230    5.3850   -3.7570 c3      2215 PE       0.039600
  13290 C2         23.4930    5.8750   -4.4870 c3      2215 PE       0.039600
  13291 H11        24.4130    7.0250   -2.8970 hc      2216 PE      -0.019800
  13292 H12        24.8830    5.2850   -3.0270 hc      2216 PE      -0.019800
  13293 H21        25.7030    7.5850   -5.0170 hc      2216 PE      -0.019800
  13294 H22        26.0230    5.8650   -5.2470 hc      2216 PE      -0.019800
  13295 C1         24.6930    6.2150   -3.5770 c3      2216 PE       0.039600
  13296 C2         25.8530    6.6350   -4.4870 c3      2216 PE       0.039600
  13297 H11        26.8830    7.5750   -2.8070 hc      2217 PE      -0.019800
  13298 H12        27.3530    5.9150   -3.1670 hc      2217 PE      -0.019800
  13299 H21        28.0130    8.5850   -4.7570 hc      2217 PE      -0.019800
  13300 H22        28.4330    6.9750   -5.3570 hc      2217 PE      -0.019800
  13301 C1         27.0830    6.8750   -3.6270 c3      2217 PE       0.039600
  13302 C2         28.2230    7.5550   -4.4470 c3      2217 PE       0.039600
  13303 H11        29.2330    8.2450   -2.7470 hc      2218 PE      -0.019800
  13304 H12        29.7430    6.7250   -3.2070 hc      2218 PE      -0.019800
  13305 H21        30.4630    9.2850   -4.8670 hc      2218 PE      -0.019800
  13306 H22        31.1330    7.7850   -5.2870 hc      2218 PE      -0.019800
  13307 C1         29.4630    7.6850   -3.6670 c3      2218 PE       0.039600
  13308 C2         30.7230    8.3150   -4.4170 c3      2218 PE       0.039600
  13309 H11        31.5230    8.8850   -2.5870 hc      2219 PE      -0.019800
  13310 H12        32.4530    7.6050   -3.2070 hc      2219 PE      -0.019800
  13311 H21        32.4030   10.4850   -4.2570 hc      2219 PE      -0.019800
  13312 H22        33.1930    9.1950   -5.1470 hc      2219 PE      -0.019800
  13313 C1         31.9030    8.4950   -3.5370 c3      2219 PE       0.039600
  13314 C2         32.9130    9.5250   -4.1370 c3      2219 PE       0.039600
  13315 H11        34.0330   10.7350   -2.6170 hc      2220 PE      -0.019800
  13316 H12        34.3730    9.0750   -2.4070 hc      2220 PE      -0.019800
  13317 H21        35.5730    9.0150   -4.5770 hc      2220 PE      -0.019800
  13318 H22        35.1830   10.7750   -4.7670 hc      2220 PE      -0.019800
  13319 C1         34.1630    9.8150   -3.1870 c3      2220 PE       0.039600
  13320 C2         35.3330    9.9450   -4.0570 c3      2220 PE       0.039600
  13321 H11        35.8630   12.8450   -0.7070 hc      2221 PE      -0.019800
  13322 H12        35.8930   13.7950    0.7430 hc      2221 PE      -0.019800
  13323 H21        33.9630   13.8950   -0.6170 hc      2221 PE      -0.019800
  13324 H22        34.8630   14.8650   -1.9070 hc      2221 PE      -0.019800
  13325 C1         35.9830   13.8750   -0.3470 c3      2221 PE       0.039600
  13326 C2         34.7430   14.6350   -0.8470 c3      2221 PE       0.039600
  13327 H11        34.4130   15.6350    0.9930 hc      2222 PE      -0.019800
  13328 H12        35.3230   16.6250   -0.1470 hc      2222 PE      -0.019800
  13329 H21        32.3730   15.8950   -0.5870 hc      2222 PE      -0.019800
  13330 H22        33.3030   17.0350   -1.6170 hc      2222 PE      -0.019800
  13331 C1         34.4930   15.9250   -0.0670 c3      2222 PE       0.039600
  13332 C2         33.1730   16.6350   -0.6070 c3      2222 PE       0.039600
  13333 H11        32.1730   17.2050    1.1530 hc      2223 PE      -0.019800
  13334 H12        33.4530   18.3150    0.6130 hc      2223 PE      -0.019800
  13335 H21        30.8630   17.8750   -1.1370 hc      2223 PE      -0.019800
  13336 H22        32.1930   19.0650   -1.2870 hc      2223 PE      -0.019800
  13337 C1         32.6130   17.7050    0.2730 c3      2223 PE       0.039600
  13338 C2         31.5530   18.5250   -0.5770 c3      2223 PE       0.039600
  13339 H11        30.2730   18.9350    0.9430 hc      2224 PE      -0.019800
  13340 H12        31.6430   19.9850    0.9630 hc      2224 PE      -0.019800
  13341 H21        29.3330   20.2050   -1.0270 hc      2224 PE      -0.019800
  13342 H22        30.8930   21.0050   -1.1370 hc      2224 PE      -0.019800
  13343 C1         30.9130   19.5450    0.2730 c3      2224 PE       0.039600
  13344 C2         30.1330   20.6750   -0.4270 c3      2224 PE       0.039600
  13345 H11        29.1630   21.2150    1.3530 hc      2225 PE      -0.019800
  13346 H12        30.5030   22.3250    0.9130 hc      2225 PE      -0.019800
  13347 H21        27.8730   22.1850   -0.7570 hc      2225 PE      -0.019800
  13348 H22        29.1330   23.2850   -1.0870 hc      2225 PE      -0.019800
  13349 C1         29.6430   21.7550    0.5230 c3      2225 PE       0.039600
  13350 C2         28.6930   22.7150   -0.2570 c3      2225 PE       0.039600
  13351 H11        27.2630   23.3550    1.4030 hc      2226 PE      -0.019800
  13352 H12        28.7630   24.2450    1.3930 hc      2226 PE      -0.019800
  13353 H21        26.7430   24.4150   -0.9070 hc      2226 PE      -0.019800
  13354 H22        27.9830   25.6750   -0.4970 hc      2226 PE      -0.019800
  13355 C1         28.0130   23.7950    0.7330 c3      2226 PE       0.039600
  13356 C2         27.2830   24.9250   -0.0970 c3      2226 PE       0.039600
  13357 H11        25.7030   25.1350    1.4530 hc      2227 PE      -0.019800
  13358 H12        26.9530   26.3150    1.4430 hc      2227 PE      -0.019800
  13359 H21        25.1930   26.2450   -1.1070 hc      2227 PE      -0.019800
  13360 H22        26.3430   27.3450   -0.4470 hc      2227 PE      -0.019800
  13361 C1         26.3330   25.7150    0.7630 c3      2227 PE       0.039600
  13362 C2         25.5630   26.6350   -0.1470 c3      2227 PE       0.039600
  13363 H11        23.9930   27.0350    1.4030 hc      2228 PE      -0.019800
  13364 H12        25.3430   28.0550    1.4530 hc      2228 PE      -0.019800
  13365 H21        23.5230   27.9750   -1.0070 hc      2228 PE      -0.019800
  13366 H22        24.7230   29.2550   -0.6470 hc      2228 PE      -0.019800
  13367 C1         24.6830   27.5650    0.7230 c3      2228 PE       0.039600
  13368 C2         24.0230   28.5450   -0.2070 c3      2228 PE       0.039600
  13369 H11        22.3730   28.7950    1.2830 hc      2229 PE      -0.019800
  13370 H12        23.6930   29.8450    1.5430 hc      2229 PE      -0.019800
  13371 H21        21.6630   30.0250   -0.8770 hc      2229 PE      -0.019800
  13372 H22        22.8330   31.2850   -0.3870 hc      2229 PE      -0.019800
  13373 C1         23.0930   29.4150    0.7330 c3      2229 PE       0.039600
  13374 C2         22.2030   30.4650   -0.0270 c3      2229 PE       0.039600
  13375 H11        20.5630   30.4150    1.3530 hc      2230 PE      -0.019800
  13376 H12        21.6130   31.7450    1.6830 hc      2230 PE      -0.019800
  13377 H21        20.0930   31.7950   -1.0370 hc      2230 PE      -0.019800
  13378 H22        20.7630   33.1050   -0.1170 hc      2230 PE      -0.019800
  13379 C1         21.1630   31.1950    0.8530 c3      2230 PE       0.039600
  13380 C2         20.2530   32.1350    0.0030 c3      2230 PE       0.039600
  13381 H11        19.0730   32.6550    1.7530 hc      2231 PE      -0.019800
  13382 H12        18.5130   33.3950    0.2530 hc      2231 PE      -0.019800
  13383 H21        18.3530   30.2850    0.7130 hc      2231 PE      -0.019800
  13384 H22        17.5230   31.3450   -0.5070 hc      2231 PE      -0.019800
  13385 C1         18.9130   32.4750    0.6830 c3      2231 PE       0.039600
  13386 C2         17.8830   31.2550    0.5230 c3      2231 PE       0.039600
  13387 H11        16.9430   31.7850    2.4830 hc      2232 PE      -0.019800
  13388 H12        15.9030   32.1350    1.0830 hc      2232 PE      -0.019800
  13389 H21        15.8330   29.5350    0.8630 hc      2232 PE      -0.019800
  13390 H22        14.9030   30.4850    2.0030 hc      2232 PE      -0.019800
  13391 C1         16.6530   31.4350    1.4830 c3      2232 PE       0.039600
  13392 C2         15.9230   30.1750    1.7530 c3      2232 PE       0.039600
  13393 H11        17.5630   29.1250    2.7430 hc      2233 PE      -0.019800
  13394 H12        16.5130   29.8850    3.8730 hc      2233 PE      -0.019800
  13395 H21        15.2030   27.8050    2.2930 hc      2233 PE      -0.019800
  13396 H22        15.1330   28.1950    4.0730 hc      2233 PE      -0.019800
  13397 C1         16.5030   29.3850    2.8930 c3      2233 PE       0.039600
  13398 C2         15.7730   28.0550    3.1930 c3      2233 PE       0.039600
  13399 H11        17.4230   26.8850    2.6130 hc      2234 PE      -0.019800
  13400 H12        17.3530   27.2050    4.3830 hc      2234 PE      -0.019800
  13401 H21        15.4830   25.2550    2.9030 hc      2234 PE      -0.019800
  13402 H22        15.4730   25.6550    4.7030 hc      2234 PE      -0.019800
  13403 C1         16.7730   26.9250    3.4930 c3      2234 PE       0.039600
  13404 C2         16.0730   25.5150    3.8030 c3      2234 PE       0.039600
  13405 H11        18.0830   24.6650    3.8130 hc      2235 PE      -0.019800
  13406 H12        17.1230   24.4250    5.3230 hc      2235 PE      -0.019800
  13407 H21        16.8230   22.8450    2.8130 hc      2235 PE      -0.019800
  13408 H22        15.7830   22.6850    4.2330 hc      2235 PE      -0.019800
  13409 C1         17.0930   24.4150    4.2230 c3      2235 PE       0.039600
  13410 C2         16.7930   22.9750    3.9030 c3      2235 PE       0.039600
  13411 H11        18.7630   22.2450    4.1030 hc      2236 PE      -0.019800
  13412 H12        17.9630   22.3950    5.7430 hc      2236 PE      -0.019800
  13413 H21        16.6730   20.3250    3.9630 hc      2236 PE      -0.019800
  13414 H22        16.9230   20.2750    5.6730 hc      2236 PE      -0.019800
  13415 C1         17.8430   22.1050    4.6930 c3      2236 PE       0.039600
  13416 C2         17.4130   20.5750    4.7430 c3      2236 PE       0.039600
  13417 H11        19.2030   19.8750    3.5930 hc      2237 PE      -0.019800
  13418 H12        19.3430   20.0050    5.4030 hc      2237 PE      -0.019800
  13419 H21        17.5630   17.9950    3.8930 hc      2237 PE      -0.019800
  13420 H22        17.9530   17.8450    5.6230 hc      2237 PE      -0.019800
  13421 C1         18.7230   19.6750    4.5530 c3      2237 PE       0.039600
  13422 C2         18.3530   18.1250    4.6430 c3      2237 PE       0.039600
  13423 H11        19.9430   17.4650    3.3330 hc      2238 PE      -0.019800
  13424 H12        20.3430   17.2250    5.0430 hc      2238 PE      -0.019800
  13425 H21        18.0430   15.6850    3.5630 hc      2238 PE      -0.019800
  13426 H22        18.4430   15.4850    5.2330 hc      2238 PE      -0.019800
  13427 C1         19.5230   17.1650    4.3030 c3      2238 PE       0.039600
  13428 C2         18.8930   15.6950    4.2630 c3      2238 PE       0.039600
  13429 H11        19.3230   13.8250    3.2430 hc      2239 PE      -0.019800
  13430 H12        20.6530   14.9850    3.1130 hc      2239 PE      -0.019800
  13431 H21        21.0230   12.9350    4.4630 hc      2239 PE      -0.019800
  13432 H22        19.8430   13.6250    5.6530 hc      2239 PE      -0.019800
  13433 C1         19.8930   14.5850    3.7930 c3      2239 PE       0.039600
  13434 C2         20.6330   13.8450    4.9130 c3      2239 PE       0.039600
  13435 H11        22.4930   14.9950    4.8530 hc      2240 PE      -0.019800
  13436 H12        21.3530   15.5850    6.0730 hc      2240 PE      -0.019800
  13437 H21        22.9230   12.9150    6.1030 hc      2240 PE      -0.019800
  13438 H22        21.9630   13.5650    7.4330 hc      2240 PE      -0.019800
  13439 C1         21.7830   14.6850    5.6230 c3      2240 PE       0.039600
  13440 C2         22.5630   13.8450    6.5630 c3      2240 PE       0.039600
  13441 H11        24.1630   13.8850    7.8730 hc      2241 PE      -0.019800
  13442 H12        24.5630   14.6550    6.3330 hc      2241 PE      -0.019800
  13443 H21        22.9630   15.7750    8.7430 hc      2241 PE      -0.019800
  13444 H22        23.2930   16.6050    7.0730 hc      2241 PE      -0.019800
  13445 C1         23.7730   14.5350    7.0830 c3      2241 PE       0.039600
  13446 C2         23.5930   15.8950    7.8530 c3      2241 PE       0.039600
  13447 H11        25.4930   15.6850    9.1030 hc      2242 PE      -0.019800
  13448 H12        25.6330   16.3950    7.5530 hc      2242 PE      -0.019800
  13449 H21        25.7630   18.0150    9.4330 hc      2242 PE      -0.019800
  13450 H22        24.2030   17.6350   10.0730 hc      2242 PE      -0.019800
  13451 C1         24.9630   16.3650    8.4230 c3      2242 PE       0.039600
  13452 C2         24.7530   17.7050    9.1230 c3      2242 PE       0.039600
  13453 H11        24.8130   18.9650    7.3930 hc      2243 PE      -0.019800
  13454 H12        23.1530   18.7150    8.0830 hc      2243 PE      -0.019800
  13455 H21        25.4830   20.2650    9.6330 hc      2243 PE      -0.019800
  13456 H22        23.9030   20.2350   10.1230 hc      2243 PE      -0.019800
  13457 C1         24.2130   18.8750    8.3130 c3      2243 PE       0.039600
  13458 C2         24.4730   20.2350    9.1930 c3      2243 PE       0.039600
  13459 H11        25.1230   21.4950    7.5630 hc      2244 PE      -0.019800
  13460 H12        23.3830   21.6250    7.8430 hc      2244 PE      -0.019800
  13461 H21        25.3230   22.6750    9.8530 hc      2244 PE      -0.019800
  13462 H22        23.5530   22.9150    9.6930 hc      2244 PE      -0.019800
  13463 C1         24.3530   21.5150    8.3430 c3      2244 PE       0.039600
  13464 C2         24.5030   22.8350    9.1430 c3      2244 PE       0.039600
  13465 H11        25.8030   24.0150    7.9130 hc      2245 PE      -0.019800
  13466 H12        24.0230   24.4350    7.6730 hc      2245 PE      -0.019800
  13467 H21        25.7730   25.1950    9.9530 hc      2245 PE      -0.019800
  13468 H22        23.9530   25.3550    9.9930 hc      2245 PE      -0.019800
  13469 C1         24.8230   24.1850    8.3830 c3      2245 PE       0.039600
  13470 C2         24.8630   25.4250    9.3930 c3      2245 PE       0.039600
  13471 H11        25.5630   26.5950    7.7030 hc      2246 PE      -0.019800
  13472 H12        23.9730   26.8750    7.9830 hc      2246 PE      -0.019800
  13473 H21        26.1330   27.8650   10.0330 hc      2246 PE      -0.019800
  13474 H22        24.4330   28.4250    9.9730 hc      2246 PE      -0.019800
  13475 C1         24.9030   26.7450    8.5630 c3      2246 PE       0.039600
  13476 C2         25.2730   28.0250    9.3830 c3      2246 PE       0.039600
  13477 H11        26.5630   28.9950    7.9630 hc      2247 PE      -0.019800
  13478 H12        24.8830   29.5850    7.7630 hc      2247 PE      -0.019800
  13479 H21        27.0330   30.2550    9.8030 hc      2247 PE      -0.019800
  13480 H22        25.3530   30.6450   10.1730 hc      2247 PE      -0.019800
  13481 C1         25.6330   29.2350    8.4930 c3      2247 PE       0.039600
  13482 C2         26.0530   30.4850    9.3530 c3      2247 PE       0.039600
  13483 H11        26.9230   31.7550    7.7230 hc      2248 PE      -0.019800
  13484 H12        25.2530   31.8450    7.8630 hc      2248 PE      -0.019800
  13485 H21        27.3730   32.9250    9.8530 hc      2248 PE      -0.019800
  13486 H22        25.5630   33.2150    9.9130 hc      2248 PE      -0.019800
  13487 C1         26.1530   31.7650    8.4930 c3      2248 PE       0.039600
  13488 C2         26.4430   33.0350    9.2830 c3      2248 PE       0.039600
  13489 H11        27.1730   34.3650    7.5730 hc      2249 PE      -0.019800
  13490 H12        25.4830   34.4150    7.8530 hc      2249 PE      -0.019800
  13491 H21        27.8030   35.7750    9.3130 hc      2249 PE      -0.019800
  13492 H22        26.3930   35.4750   10.2730 hc      2249 PE      -0.019800
  13493 C1         26.4430   34.3550    8.3830 c3      2249 PE       0.039600
  13494 C2         26.7230   35.6250    9.2430 c3      2249 PE       0.039600
  13495 H11        26.5330   37.7650    9.0430 hc      2250 PE      -0.019800
  13496 H12        26.3930   36.9750    7.5230 hc      2250 PE      -0.019800
  13497 H21        24.3730   36.6750    9.6630 hc      2250 PE      -0.019800
  13498 H22        24.1730   36.2750    7.9030 hc      2250 PE      -0.019800
  13499 C1         26.0930   36.8750    8.5730 c3      2250 PE       0.039600
  13500 C2         24.6130   36.9650    8.6330 c3      2250 PE       0.039600
  13501 H11       -40.4170   31.4250   -7.5170 hc      2251 PE      -0.019800
  13502 H12       -40.2470   30.5950   -9.0870 hc      2251 PE      -0.019800
  13503 H21       -38.1470   31.8850   -7.3770 hc      2251 PE      -0.019800
  13504 H22       -37.8470   31.3450   -9.0570 hc      2251 PE      -0.019800
  13505 C1        -39.8370   31.4050   -8.4570 c3      2251 PE       0.039600
  13506 C2        -38.3770   31.1150   -8.1270 c3      2251 PE       0.039600
  13507 H11       -38.5170   29.5850   -6.7270 hc      2252 PE      -0.019800
  13508 H12       -38.7970   28.8750   -8.2170 hc      2252 PE      -0.019800
  13509 H21       -36.1670   29.7450   -6.9970 hc      2252 PE      -0.019800
  13510 H22       -36.0770   29.6850   -8.6670 hc      2252 PE      -0.019800
  13511 C1        -38.1570   29.6350   -7.7670 c3      2252 PE       0.039600
  13512 C2        -36.6570   29.2550   -7.8370 c3      2252 PE       0.039600
  13513 H11       -36.7870   27.3550   -6.8470 hc      2253 PE      -0.019800
  13514 H12       -36.9770   27.2350   -8.5870 hc      2253 PE      -0.019800
  13515 H21       -34.4270   27.5050   -6.8370 hc      2253 PE      -0.019800
  13516 H22       -34.3070   27.7150   -8.5370 hc      2253 PE      -0.019800
  13517 C1        -36.3670   27.6950   -7.7970 c3      2253 PE       0.039600
  13518 C2        -34.8970   27.1850   -7.7770 c3      2253 PE       0.039600
  13519 H11       -35.0270   25.1950   -7.0070 hc      2254 PE      -0.019800
  13520 H12       -35.4070   25.2950   -8.7670 hc      2254 PE      -0.019800
  13521 H21       -32.5870   25.7550   -7.5770 hc      2254 PE      -0.019800
  13522 H22       -32.9870   25.6250   -9.2370 hc      2254 PE      -0.019800
  13523 C1        -34.7270   25.6350   -7.9770 c3      2254 PE       0.039600
  13524 C2        -33.2570   25.2150   -8.2570 c3      2254 PE       0.039600
  13525 H11       -33.2670   23.2650   -7.3270 hc      2255 PE      -0.019800
  13526 H12       -33.7370   23.1950   -9.0570 hc      2255 PE      -0.019800
  13527 H21       -30.9270   23.9650   -8.0270 hc      2255 PE      -0.019800
  13528 H22       -31.4770   23.5850   -9.6970 hc      2255 PE      -0.019800
  13529 C1        -33.0370   23.6450   -8.3370 c3      2255 PE       0.039600
  13530 C2        -31.5670   23.3150   -8.6370 c3      2255 PE       0.039600
  13531 H11       -31.2270   21.6350   -7.1970 hc      2256 PE      -0.019800
  13532 H12       -31.9870   21.2050   -8.6570 hc      2256 PE      -0.019800
  13533 H21       -29.0870   22.1250   -8.2070 hc      2256 PE      -0.019800
  13534 H22       -29.5170   21.7550   -9.8570 hc      2256 PE      -0.019800
  13535 C1        -31.1870   21.8450   -8.2670 c3      2256 PE       0.039600
  13536 C2        -29.7370   21.4850   -8.8170 c3      2256 PE       0.039600
  13537 H11       -28.2570   19.7050   -9.0670 hc      2257 PE      -0.019800
  13538 H12       -29.1070   19.8650   -7.5070 hc      2257 PE      -0.019800
  13539 H21       -30.4870   18.9150  -10.0570 hc      2257 PE      -0.019800
  13540 H22       -31.2270   19.1150   -8.5170 hc      2257 PE      -0.019800
  13541 C1        -29.2170   19.9350   -8.5970 c3      2257 PE       0.039600
  13542 C2        -30.2470   18.9150   -8.9870 c3      2257 PE       0.039600
  13543 H11       -28.8870   17.1350   -8.8470 hc      2258 PE      -0.019800
  13544 H12       -29.9270   17.4250   -7.4370 hc      2258 PE      -0.019800
  13545 H21       -30.8270   16.0050   -9.9670 hc      2258 PE      -0.019800
  13546 H22       -31.8370   16.3550   -8.4970 hc      2258 PE      -0.019800
  13547 C1        -29.8970   17.4250   -8.5370 c3      2258 PE       0.039600
  13548 C2        -30.8170   16.2050   -8.8870 c3      2258 PE       0.039600
  13549 H11       -29.1970   14.7350   -8.8470 hc      2259 PE      -0.019800
  13550 H12       -29.8770   15.1250   -7.2370 hc      2259 PE      -0.019800
  13551 H21       -31.3570   13.6250   -9.3870 hc      2259 PE      -0.019800
  13552 H22       -32.0570   13.9550   -7.8770 hc      2259 PE      -0.019800
  13553 C1        -30.1170   14.9450   -8.2870 c3      2259 PE       0.039600
  13554 C2        -31.0770   13.7850   -8.3370 c3      2259 PE       0.039600
  13555 H11       -29.4970   12.2650   -8.2870 hc      2260 PE      -0.019800
  13556 H12       -30.4870   12.3950   -6.8370 hc      2260 PE      -0.019800
  13557 H21       -31.4370   11.2450   -9.4770 hc      2260 PE      -0.019800
  13558 H22       -32.4370   11.4850   -8.0670 hc      2260 PE      -0.019800
  13559 C1        -30.5270   12.4250   -7.9370 c3      2260 PE       0.039600
  13560 C2        -31.4070   11.2650   -8.3770 c3      2260 PE       0.039600
  13561 H11       -29.9970    9.7750   -8.2170 hc      2261 PE      -0.019800
  13562 H12       -31.0370   10.0350   -6.7170 hc      2261 PE      -0.019800
  13563 H21       -31.7470    8.7150   -9.4370 hc      2261 PE      -0.019800
  13564 H22       -32.9970    9.0950   -8.3670 hc      2261 PE      -0.019800
  13565 C1        -30.9970    9.9550   -7.8070 c3      2261 PE       0.039600
  13566 C2        -31.9270    8.8450   -8.3670 c3      2261 PE       0.039600
  13567 H11       -30.7370    7.0250   -7.9270 hc      2262 PE      -0.019800
  13568 H12       -31.8570    7.4550   -6.6370 hc      2262 PE      -0.019800
  13569 H21       -32.3970    5.4550   -8.3670 hc      2262 PE      -0.019800
  13570 H22       -33.0170    6.5850   -9.3670 hc      2262 PE      -0.019800
  13571 C1        -31.7370    7.4250   -7.7270 c3      2262 PE       0.039600
  13572 C2        -32.8270    6.4650   -8.2870 c3      2262 PE       0.039600
  13573 H11       -33.8670    5.8150   -6.5370 hc      2263 PE      -0.019800
  13574 H12       -34.5870    7.2750   -7.2170 hc      2263 PE      -0.019800
  13575 H21       -34.8170    4.3450   -8.2270 hc      2263 PE      -0.019800
  13576 H22       -35.3970    5.7150   -9.2070 hc      2263 PE      -0.019800
  13577 C1        -34.1470    6.3050   -7.4770 c3      2263 PE       0.039600
  13578 C2        -35.2070    5.3750   -8.1870 c3      2263 PE       0.039600
  13579 H11       -36.4270    4.8250   -6.6170 hc      2264 PE      -0.019800
  13580 H12       -36.9470    6.3550   -7.3270 hc      2264 PE      -0.019800
  13581 H21       -37.3970    3.8250   -8.5670 hc      2264 PE      -0.019800
  13582 H22       -37.7270    5.3350   -9.3570 hc      2264 PE      -0.019800
  13583 C1        -36.5670    5.3550   -7.5670 c3      2264 PE       0.039600
  13584 C2        -37.7370    4.8550   -8.3770 c3      2264 PE       0.039600
  13585 H11       -39.1770    4.2950   -6.7270 hc      2265 PE      -0.019800
  13586 H12       -39.3670    5.8650   -7.4270 hc      2265 PE      -0.019800
  13587 H21       -40.0870    3.3450   -9.0170 hc      2265 PE      -0.019800
  13588 H22       -40.4370    4.9150   -9.4870 hc      2265 PE      -0.019800
  13589 C1        -39.0870    4.8350   -7.6770 c3      2265 PE       0.039600
  13590 C2        -40.3070    4.3250   -8.5770 c3      2265 PE       0.039600
  13591 H11        38.4930    3.6650   -6.8270 hc      2266 PE      -0.019800
  13592 H12        38.1430    5.2750   -7.4870 hc      2266 PE      -0.019800
  13593 H21        37.6530    2.6050   -8.9470 hc      2266 PE      -0.019800
  13594 H22        37.0430    4.0550   -9.6170 hc      2266 PE      -0.019800
  13595 C1         38.3530    4.2350   -7.7670 c3      2266 PE       0.039600
  13596 C2         37.2230    3.5650   -8.6570 c3      2266 PE       0.039600
  13597 H11        36.1130    2.6950   -7.1070 hc      2267 PE      -0.019800
  13598 H12        35.6430    4.4750   -7.4470 hc      2267 PE      -0.019800
  13599 H21        35.0230    2.0050   -9.3970 hc      2267 PE      -0.019800
  13600 H22        34.1630    3.5050   -9.2970 hc      2267 PE      -0.019800
  13601 C1         35.8730    3.4750   -7.8370 c3      2267 PE       0.039600
  13602 C2         34.7130    2.7750   -8.6870 c3      2267 PE       0.039600
  13603 H11        33.9830    1.3550   -7.1970 hc      2268 PE      -0.019800
  13604 H12        33.2230    2.8250   -7.0870 hc      2268 PE      -0.019800
  13605 H21        32.8730    0.5850   -9.1670 hc      2268 PE      -0.019800
  13606 H22        32.2630    2.1550   -9.6270 hc      2268 PE      -0.019800
  13607 C1         33.6030    2.1450   -7.8570 c3      2268 PE       0.039600
  13608 C2         32.5030    1.5250   -8.7570 c3      2268 PE       0.039600
  13609 H11        31.4630    0.7450   -6.9970 hc      2269 PE      -0.019800
  13610 H12        30.8430    2.2250   -7.6470 hc      2269 PE      -0.019800
  13611 H21        30.4330   -0.3650   -9.2270 hc      2269 PE      -0.019800
  13612 H22        29.8030    1.2250   -9.6170 hc      2269 PE      -0.019800
  13613 C1         31.2330    1.2450   -7.9470 c3      2269 PE       0.039600
  13614 C2         30.0730    0.5650   -8.7870 c3      2269 PE       0.039600
  13615 H11        28.8630   -0.1150   -7.0670 hc      2270 PE      -0.019800
  13616 H12        28.4730    1.4850   -7.6570 hc      2270 PE      -0.019800
  13617 H21        27.7730   -0.9850   -9.3770 hc      2270 PE      -0.019800
  13618 H22        27.2030    0.6250   -9.5670 hc      2270 PE      -0.019800
  13619 C1         28.7730    0.4750   -7.9870 c3      2270 PE       0.039600
  13620 C2         27.5430   -0.0850   -8.7970 c3      2270 PE       0.039600
  13621 H11        26.3630   -1.2450   -7.2470 hc      2271 PE      -0.019800
  13622 H12        26.2530    0.4550   -7.1970 hc      2271 PE      -0.019800
  13623 H21        24.9930   -1.5950   -9.2970 hc      2271 PE      -0.019800
  13624 H22        24.7230    0.1250   -9.4670 hc      2271 PE      -0.019800
  13625 C1         26.2430   -0.3750   -7.9070 c3      2271 PE       0.039600
  13626 C2         24.9230   -0.6550   -8.7270 c3      2271 PE       0.039600
  13627 H11        23.6830   -1.2450   -6.9470 hc      2272 PE      -0.019800
  13628 H12        23.5630    0.4850   -7.4170 hc      2272 PE      -0.019800
  13629 H21        22.6930   -1.8850   -9.1770 hc      2272 PE      -0.019800
  13630 H22        22.3830   -0.1350   -9.3470 hc      2272 PE      -0.019800
  13631 C1         23.6930   -0.5350   -7.7970 c3      2272 PE       0.039600
  13632 C2         22.4430   -0.9650   -8.6370 c3      2272 PE       0.039600
  13633 H11        21.2930   -1.8150   -7.0170 hc      2273 PE      -0.019800
  13634 H12        20.8730   -0.1450   -7.3270 hc      2273 PE      -0.019800
  13635 H21        20.4230   -2.5550   -9.1970 hc      2273 PE      -0.019800
  13636 H22        19.9530   -0.8250   -9.5370 hc      2273 PE      -0.019800
  13637 C1         21.1630   -1.0850   -7.8170 c3      2273 PE       0.039600
  13638 C2         20.0930   -1.5950   -8.7770 c3      2273 PE       0.039600
  13639 H11        18.9430   -2.6550   -7.3470 hc      2274 PE      -0.019800
  13640 H12        18.5530   -0.9350   -7.4170 hc      2274 PE      -0.019800
  13641 H21        17.7030   -2.9650   -9.6270 hc      2274 PE      -0.019800
  13642 H22        17.2330   -1.2550   -9.6770 hc      2274 PE      -0.019800
  13643 C1         18.7430   -1.8250   -8.0270 c3      2274 PE       0.039600
  13644 C2         17.5030   -2.0850   -9.0070 c3      2274 PE       0.039600
  13645 H11        16.3030   -2.9650   -7.2870 hc      2275 PE      -0.019800
  13646 H12        15.7930   -1.3850   -7.7670 hc      2275 PE      -0.019800
  13647 H21        15.4830   -3.8550   -9.5970 hc      2275 PE      -0.019800
  13648 H22        14.9230   -2.2350   -9.9170 hc      2275 PE      -0.019800
  13649 C1         16.1730   -2.3250   -8.1670 c3      2275 PE       0.039600
  13650 C2         15.0930   -2.9450   -9.1070 c3      2275 PE       0.039600
  13651 H11        14.0730   -3.9450   -7.4370 hc      2276 PE      -0.019800
  13652 H12        13.6530   -2.2950   -7.6170 hc      2276 PE      -0.019800
  13653 H21        12.7930   -4.5650   -9.4670 hc      2276 PE      -0.019800
  13654 H22        12.3330   -2.8750   -9.7370 hc      2276 PE      -0.019800
  13655 C1         13.8230   -3.2050   -8.2070 c3      2276 PE       0.039600
  13656 C2         12.5430   -3.6150   -8.9670 c3      2276 PE       0.039600
  13657 H11        11.4930   -4.5350   -7.2670 hc      2277 PE      -0.019800
  13658 H12        11.1030   -2.8650   -7.6070 hc      2277 PE      -0.019800
  13659 H21        10.2030   -5.3250   -9.0470 hc      2277 PE      -0.019800
  13660 H22         9.9130   -3.6950   -9.7270 hc      2277 PE      -0.019800
  13661 C1         11.2930   -3.8350   -8.0870 c3      2277 PE       0.039600
  13662 C2         10.0830   -4.2650   -8.8070 c3      2277 PE       0.039600
  13663 H11         8.9030   -5.0650   -7.2270 hc      2278 PE      -0.019800
  13664 H12         8.8830   -3.2450   -7.4270 hc      2278 PE      -0.019800
  13665 H21         7.5830   -5.3750   -9.1770 hc      2278 PE      -0.019800
  13666 H22         7.5830   -3.6150   -9.5470 hc      2278 PE      -0.019800
  13667 C1          8.8230   -4.2250   -7.9170 c3      2278 PE       0.039600
  13668 C2          7.5430   -4.3650   -8.7570 c3      2278 PE       0.039600
  13669 H11         6.1630   -4.8450   -6.9870 hc      2279 PE      -0.019800
  13670 H12         6.2830   -3.2050   -7.3870 hc      2279 PE      -0.019800
  13671 H21         4.9730   -5.2250   -9.3170 hc      2279 PE      -0.019800
  13672 H22         4.9630   -3.4750   -9.5570 hc      2279 PE      -0.019800
  13673 C1          6.2530   -4.1850   -7.8670 c3      2279 PE       0.039600
  13674 C2          5.0030   -4.2650   -8.7970 c3      2279 PE       0.039600
  13675 H11         3.7130   -5.0550   -7.1570 hc      2280 PE      -0.019800
  13676 H12         3.6530   -3.3150   -7.2870 hc      2280 PE      -0.019800
  13677 H21         1.4530   -4.4050   -8.1570 hc      2280 PE      -0.019800
  13678 H22         2.2130   -3.3250   -9.2770 hc      2280 PE      -0.019800
  13679 C1          3.6630   -4.2350   -7.8770 c3      2280 PE       0.039600
  13680 C2          2.3630   -4.2750   -8.7470 c3      2280 PE       0.039600
  13681 H11       -10.4170  -35.1350   -9.4970 hc      2281 PE      -0.019800
  13682 H12       -10.4270  -33.3950   -9.6870 hc      2281 PE      -0.019800
  13683 H21       -11.6770  -33.0850   -7.7470 hc      2281 PE      -0.019800
  13684 H22       -11.0270  -34.6450   -7.0670 hc      2281 PE      -0.019800
  13685 C1        -10.4170  -34.1950   -8.9270 c3      2281 PE       0.039600
  13686 C2        -11.4970  -34.1550   -7.9270 c3      2281 PE       0.039600
  13687 H11       -13.0770  -34.4950   -9.3870 hc      2282 PE      -0.019800
  13688 H12       -12.6270  -35.8750   -8.5770 hc      2282 PE      -0.019800
  13689 H21       -14.1470  -33.7650   -6.7470 hc      2282 PE      -0.019800
  13690 H22       -14.1470  -35.5150   -6.7970 hc      2282 PE      -0.019800
  13691 C1        -12.7870  -34.8050   -8.3770 c3      2282 PE       0.039600
  13692 C2        -14.1270  -34.6250   -7.4370 c3      2282 PE       0.039600
  13693 H11       -15.3970  -33.3550   -8.6070 hc      2283 PE      -0.019800
  13694 H12       -15.4470  -35.0350   -9.1970 hc      2283 PE      -0.019800
  13695 H21       -16.7470  -34.1150   -6.4470 hc      2283 PE      -0.019800
  13696 H22       -16.7970  -35.7550   -7.3270 hc      2283 PE      -0.019800
  13697 C1        -15.4470  -34.4050   -8.2970 c3      2283 PE       0.039600
  13698 C2        -16.7670  -34.6650   -7.3970 c3      2283 PE       0.039600
  13699 H11       -17.8170  -33.2850   -8.6570 hc      2284 PE      -0.019800
  13700 H12       -18.0370  -34.9850   -9.0970 hc      2284 PE      -0.019800
  13701 H21       -19.1870  -33.3650   -6.7070 hc      2284 PE      -0.019800
  13702 H22       -19.4170  -35.1150   -6.7870 hc      2284 PE      -0.019800
  13703 C1        -17.9770  -34.2850   -8.2570 c3      2284 PE       0.039600
  13704 C2        -19.2870  -34.2150   -7.3970 c3      2284 PE       0.039600
  13705 H11       -20.1770  -33.2350   -9.1070 hc      2285 PE      -0.019800
  13706 H12       -20.7570  -34.9850   -8.7470 hc      2285 PE      -0.019800
  13707 H21       -21.4170  -32.4950   -7.0870 hc      2285 PE      -0.019800
  13708 H22       -21.8670  -34.0650   -6.6370 hc      2285 PE      -0.019800
  13709 C1        -20.4670  -33.9950   -8.3770 c3      2285 PE       0.039600
  13710 C2        -21.6670  -33.4650   -7.5270 c3      2285 PE       0.039600
  13711 H11       -22.7170  -32.8850   -9.3570 hc      2286 PE      -0.019800
  13712 H12       -23.2970  -34.3150   -8.6470 hc      2286 PE      -0.019800
  13713 H21       -23.7970  -31.5150   -7.3070 hc      2286 PE      -0.019800
  13714 H22       -24.2870  -33.2050   -6.8370 hc      2286 PE      -0.019800
  13715 C1        -22.9970  -33.2950   -8.3770 c3      2286 PE       0.039600
  13716 C2        -24.1270  -32.4950   -7.6670 c3      2286 PE       0.039600
  13717 H11       -25.2670  -31.3850   -9.0670 hc      2287 PE      -0.019800
  13718 H12       -25.4170  -33.1250   -9.3970 hc      2287 PE      -0.019800
  13719 H21       -26.5770  -31.5850   -7.1370 hc      2287 PE      -0.019800
  13720 H22       -26.6470  -33.3550   -7.2970 hc      2287 PE      -0.019800
  13721 C1        -25.3970  -32.3750   -8.5970 c3      2287 PE       0.039600
  13722 C2        -26.6770  -32.4150   -7.8470 c3      2287 PE       0.039600
  13723 H11       -27.8670  -31.2750   -9.1770 hc      2288 PE      -0.019800
  13724 H12       -28.0170  -32.9850   -9.4770 hc      2288 PE      -0.019800
  13725 H21       -29.2070  -31.6150   -7.0070 hc      2288 PE      -0.019800
  13726 H22       -29.3270  -33.3650   -7.4770 hc      2288 PE      -0.019800
  13727 C1        -27.9970  -32.2450   -8.6670 c3      2288 PE       0.039600
  13728 C2        -29.2870  -32.3250   -7.8370 c3      2288 PE       0.039600
  13729 H11       -30.4470  -31.2150   -9.3870 hc      2289 PE      -0.019800
  13730 H12       -30.5870  -33.0550   -9.4170 hc      2289 PE      -0.019800
  13731 H21       -31.8170  -31.1450   -7.4770 hc      2289 PE      -0.019800
  13732 H22       -31.7970  -32.8750   -7.1970 hc      2289 PE      -0.019800
  13733 C1        -30.5170  -32.1450   -8.8070 c3      2289 PE       0.039600
  13734 C2        -31.8170  -32.1150   -7.9870 c3      2289 PE       0.039600
  13735 H11       -32.9470  -31.6350   -9.7370 hc      2290 PE      -0.019800
  13736 H12       -33.0670  -33.3450   -9.3170 hc      2290 PE      -0.019800
  13737 H21       -35.2370  -31.6850   -8.8770 hc      2290 PE      -0.019800
  13738 H22       -34.2870  -31.2750   -7.4470 hc      2290 PE      -0.019800
  13739 C1        -33.0670  -32.3250   -8.8970 c3      2290 PE       0.039600
  13740 C2        -34.4770  -32.0550   -8.1870 c3      2290 PE       0.039600
  13741 H11       -35.0370  -34.2450   -7.8370 hc      2291 PE      -0.019800
  13742 H12       -34.4070  -33.3050   -6.4470 hc      2291 PE      -0.019800
  13743 H21       -36.5170  -31.9850   -6.4770 hc      2291 PE      -0.019800
  13744 H22       -36.7070  -33.7050   -6.0370 hc      2291 PE      -0.019800
  13745 C1        -35.0270  -33.2550   -7.3470 c3      2291 PE       0.039600
  13746 C2        -36.4970  -33.0150   -6.8670 c3      2291 PE       0.039600
  13747 H11       -37.3270  -32.6250   -8.8870 hc      2292 PE      -0.019800
  13748 H12       -37.2570  -34.3050   -8.5270 hc      2292 PE      -0.019800
  13749 H21       -39.1370  -32.1850   -7.2670 hc      2292 PE      -0.019800
  13750 H22       -39.3170  -33.8850   -6.9070 hc      2292 PE      -0.019800
  13751 C1        -37.4870  -33.3350   -8.0670 c3      2292 PE       0.039600
  13752 C2        -38.9970  -33.1850   -7.6870 c3      2292 PE       0.039600
  13753 H11       -40.8770  -33.0950   -8.5570 hc      2293 PE      -0.019800
  13754 H12       -39.6570  -33.0050   -9.7070 hc      2293 PE      -0.019800
  13755 H21       -38.9170  -35.4250   -9.4970 hc      2293 PE      -0.019800
  13756 H22       -40.5870  -35.2450   -9.9870 hc      2293 PE      -0.019800
  13757 C1        -39.9270  -33.5750   -8.8070 c3      2293 PE       0.039600
  13758 C2        -39.9070  -35.0850   -9.1470 c3      2293 PE       0.039600
  13759 H11       -39.7970  -35.9250   -6.9970 hc      2294 PE      -0.019800
  13760 H12       -41.4670  -35.7850   -7.6270 hc      2294 PE      -0.019800
  13761 H21       -39.3170  -37.7250   -8.6170 hc      2294 PE      -0.019800
  13762 H22       -40.9470  -37.6050   -9.2970 hc      2294 PE      -0.019800
  13763 C1        -40.4170  -35.9550   -7.9070 c3      2294 PE       0.039600
  13764 C2        -40.3570  -37.4750   -8.3770 c3      2294 PE       0.039600
  13765 H11        39.6430  -38.3150   -6.3670 hc      2295 PE      -0.019800
  13766 H12        38.1230  -38.0050   -7.1770 hc      2295 PE      -0.019800
  13767 H21        38.4030  -40.0250   -8.5370 hc      2295 PE      -0.019800
  13768 H22        38.6330  -40.4650   -6.8070 hc      2295 PE      -0.019800
  13769 C1         39.1230  -38.4450   -7.3170 c3      2295 PE       0.039600
  13770 C2         39.0730  -39.9450   -7.6770 c3      2295 PE       0.039600
  13771 H11       -39.2570   39.8850   -9.0670 hc      2296 PE      -0.019800
  13772 H12       -38.7070   39.8150   -7.4270 hc      2296 PE      -0.019800
  13773 H21       -40.2270   37.6650   -8.9670 hc      2296 PE      -0.019800
  13774 H22       -39.8170   37.4750   -7.2670 hc      2296 PE      -0.019800
  13775 C1        -39.5170   39.4850   -8.0770 c3      2296 PE       0.039600
  13776 C2        -39.4770   37.9350   -8.2070 c3      2296 PE       0.039600
  13777 H11       -37.7370   37.9150   -9.4870 hc      2297 PE      -0.019800
  13778 H12       -37.4670   37.9050   -7.7170 hc      2297 PE      -0.019800
  13779 H21       -38.4870   35.3650   -9.1570 hc      2297 PE      -0.019800
  13780 H22       -38.1970   35.5050   -7.4270 hc      2297 PE      -0.019800
  13781 C1        -38.0570   37.4750   -8.5370 c3      2297 PE       0.039600
  13782 C2        -37.9070   35.9150   -8.3970 c3      2297 PE       0.039600
  13783 H11       -36.1870   35.8250   -9.6570 hc      2298 PE      -0.019800
  13784 H12       -35.8270   36.1050   -7.9470 hc      2298 PE      -0.019800
  13785 H21       -36.7870   33.4550   -9.1770 hc      2298 PE      -0.019800
  13786 H22       -36.5670   33.6650   -7.4370 hc      2298 PE      -0.019800
  13787 C1        -36.4170   35.4850   -8.6370 c3      2298 PE       0.039600
  13788 C2        -36.1870   33.9850   -8.4170 c3      2298 PE       0.039600
  13789 H11       -34.2570   33.9350   -9.5770 hc      2299 PE      -0.019800
  13790 H12       -34.1070   34.0350   -7.7570 hc      2299 PE      -0.019800
  13791 H21       -34.9770   31.6150   -9.3170 hc      2299 PE      -0.019800
  13792 H22       -34.7570   31.6950   -7.5070 hc      2299 PE      -0.019800
  13793 C1        -34.6470   33.5950   -8.6070 c3      2299 PE       0.039600
  13794 C2        -34.4470   32.0850   -8.4770 c3      2299 PE       0.039600
  13795 H11       -32.5670   32.0250   -9.5870 hc      2300 PE      -0.019800
  13796 H12       -32.3470   32.5050   -8.0070 hc      2300 PE      -0.019800
  13797 H21       -33.1670   29.6550   -8.9370 hc      2300 PE      -0.019800
  13798 H22       -33.0270   29.9850   -7.2370 hc      2300 PE      -0.019800
  13799 C1        -32.9370   31.7850   -8.5770 c3      2300 PE       0.039600
  13800 C2        -32.6770   30.3250   -8.2170 c3      2300 PE       0.039600
  13801 H11       -30.8470   30.5450   -9.3570 hc      2301 PE      -0.019800
  13802 H12       -30.6270   30.5150   -7.6070 hc      2301 PE      -0.019800
  13803 H21       -31.4570   27.9550   -9.1870 hc      2301 PE      -0.019800
  13804 H22       -31.0670   27.9950   -7.5070 hc      2301 PE      -0.019800
  13805 C1        -31.1470   30.0250   -8.4370 c3      2301 PE       0.039600
  13806 C2        -30.8370   28.4950   -8.4570 c3      2301 PE       0.039600
  13807 H11       -28.9470   28.4050   -9.6670 hc      2302 PE      -0.019800
  13808 H12       -28.6770   28.6050   -7.9170 hc      2302 PE      -0.019800
  13809 H21       -29.5970   26.1450   -9.5070 hc      2302 PE      -0.019800
  13810 H22       -29.4670   26.2450   -7.6970 hc      2302 PE      -0.019800
  13811 C1        -29.3370   28.1650   -8.6770 c3      2302 PE       0.039600
  13812 C2        -29.1170   26.6450   -8.6570 c3      2302 PE       0.039600
  13813 H11       -27.0870   26.9850   -9.4170 hc      2303 PE      -0.019800
  13814 H12       -26.9470   26.5950   -7.8070 hc      2303 PE      -0.019800
  13815 H21       -27.4170   24.6550  -10.0970 hc      2303 PE      -0.019800
  13816 H22       -27.9170   24.2250   -8.3970 hc      2303 PE      -0.019800
  13817 C1        -27.5470   26.3250   -8.6770 c3      2303 PE       0.039600
  13818 C2        -27.2270   24.7950   -9.0270 c3      2303 PE       0.039600
  13819 H11       -25.0470   24.9550   -9.6070 hc      2304 PE      -0.019800
  13820 H12       -25.2970   24.8750   -7.8470 hc      2304 PE      -0.019800
  13821 H21       -25.7070   22.5950   -9.6970 hc      2304 PE      -0.019800
  13822 H22       -25.9670   22.4650   -7.9970 hc      2304 PE      -0.019800
  13823 C1        -25.6370   24.4750   -8.8170 c3      2304 PE       0.039600
  13824 C2        -25.3370   22.9650   -8.7370 c3      2304 PE       0.039600
  13825 H11       -23.1770   23.2150   -9.0370 hc      2305 PE      -0.019800
  13826 H12       -23.5670   22.9450   -7.2970 hc      2305 PE      -0.019800
  13827 H21       -23.7470   20.6650   -9.3070 hc      2305 PE      -0.019800
  13828 H22       -23.8870   20.6450   -7.6370 hc      2305 PE      -0.019800
  13829 C1        -23.8170   22.6750   -8.3370 c3      2305 PE       0.039600
  13830 C2        -23.3870   21.2050   -8.4270 c3      2305 PE       0.039600
  13831 H11       -21.3770   21.7150   -9.0670 hc      2306 PE      -0.019800
  13832 H12       -21.5270   21.4350   -7.3270 hc      2306 PE      -0.019800
  13833 H21       -21.5770   19.3050   -9.5370 hc      2306 PE      -0.019800
  13834 H22       -21.6170   19.0250   -7.7770 hc      2306 PE      -0.019800
  13835 C1        -21.8370   21.0650   -8.3070 c3      2306 PE       0.039600
  13836 C2        -21.2270   19.6750   -8.5670 c3      2306 PE       0.039600
  13837 H11       -19.2070   20.1750   -9.2770 hc      2307 PE      -0.019800
  13838 H12       -19.2770   20.3850   -7.6270 hc      2307 PE      -0.019800
  13839 H21       -19.5370   17.7450   -9.2470 hc      2307 PE      -0.019800
  13840 H22       -19.6070   17.6650   -7.4870 hc      2307 PE      -0.019800
  13841 C1        -19.6870   19.7250   -8.3970 c3      2307 PE       0.039600
  13842 C2        -19.1870   18.2350   -8.3270 c3      2307 PE       0.039600
  13843 H11       -17.4070   17.2350   -8.5570 hc      2308 PE      -0.019800
  13844 H12       -17.3570   18.9850   -9.0470 hc      2308 PE      -0.019800
  13845 H21       -17.5370   18.2650   -6.0770 hc      2308 PE      -0.019800
  13846 H22       -16.9670   19.7250   -6.7570 hc      2308 PE      -0.019800
  13847 C1        -17.6770   18.2550   -8.2870 c3      2308 PE       0.039600
  13848 C2        -16.9770   18.6350   -6.9370 c3      2308 PE       0.039600
  13849 H11       -15.6770   16.9750   -6.8070 hc      2309 PE      -0.019800
  13850 H12       -15.0170   18.2150   -7.7370 hc      2309 PE      -0.019800
  13851 H21       -15.6170   18.4350   -4.6770 hc      2309 PE      -0.019800
  13852 H22       -14.6970   19.6550   -5.6370 hc      2309 PE      -0.019800
  13853 C1        -15.5670   18.0650   -6.7970 c3      2309 PE       0.039600
  13854 C2        -14.9170   18.5850   -5.5070 c3      2309 PE       0.039600
  13855 H11       -13.6670   16.7150   -5.1370 hc      2310 PE      -0.019800
  13856 H12       -12.9170   17.8650   -5.9770 hc      2310 PE      -0.019800
  13857 H21       -13.2970   17.5050   -3.1170 hc      2310 PE      -0.019800
  13858 H22       -11.8570   17.8850   -3.9570 hc      2310 PE      -0.019800
  13859 C1        -13.6270   17.8150   -5.1370 c3      2310 PE       0.039600
  13860 C2        -12.8970   18.2150   -3.8670 c3      2310 PE       0.039600
  13861 H11        26.5530   21.7950    4.6230 hc      2311 PE      -0.019800
  13862 H12        27.7930   22.5850    3.7930 hc      2311 PE      -0.019800
  13863 H21        25.4130   23.5350    5.1230 hc      2311 PE      -0.019800
  13864 H22        25.9830   23.9350    3.4830 hc      2311 PE      -0.019800
  13865 C1         27.1730   22.6950    4.7030 c3      2311 PE       0.039600
  13866 C2         26.2730   23.8950    4.5330 c3      2311 PE       0.039600
  13867 H11        27.1730   25.1950    6.0330 hc      2312 PE      -0.019800
  13868 H12        27.7230   25.3850    4.4430 hc      2312 PE      -0.019800
  13869 H21        24.8630   26.2650    5.5930 hc      2312 PE      -0.019800
  13870 H22        25.1630   26.2650    3.8530 hc      2312 PE      -0.019800
  13871 C1         26.7930   25.2150    5.0030 c3      2312 PE       0.039600
  13872 C2         25.6630   26.3250    4.8330 c3      2312 PE       0.039600
  13873 H11        26.7330   27.8650    5.9030 hc      2313 PE      -0.019800
  13874 H12        27.1430   27.8450    4.2030 hc      2313 PE      -0.019800
  13875 H21        24.4630   28.7450    5.4230 hc      2313 PE      -0.019800
  13876 H22        24.6930   28.6050    3.7330 hc      2313 PE      -0.019800
  13877 C1         26.3030   27.7650    4.9030 c3      2313 PE       0.039600
  13878 C2         25.2430   28.8250    4.6530 c3      2313 PE       0.039600
  13879 H11        26.4630   30.4350    5.3730 hc      2314 PE      -0.019800
  13880 H12        26.1630   30.4550    3.5730 hc      2314 PE      -0.019800
  13881 H21        24.2130   31.2450    5.8630 hc      2314 PE      -0.019800
  13882 H22        23.7430   31.1350    4.1230 hc      2314 PE      -0.019800
  13883 C1         25.7330   30.2750    4.5730 c3      2314 PE       0.039600
  13884 C2         24.5730   31.3050    4.8230 c3      2314 PE       0.039600
  13885 H11        25.7430   32.9950    5.3830 hc      2315 PE      -0.019800
  13886 H12        25.5930   32.7650    3.5930 hc      2315 PE      -0.019800
  13887 H21        23.3430   33.5350    5.5430 hc      2315 PE      -0.019800
  13888 H22        23.2130   33.5150    3.8130 hc      2315 PE      -0.019800
  13889 C1         25.0630   32.7550    4.5530 c3      2315 PE       0.039600
  13890 C2         23.8930   33.7750    4.6230 c3      2315 PE       0.039600
  13891 H11        24.9630   35.4050    5.6130 hc      2316 PE      -0.019800
  13892 H12        25.1630   35.3050    3.7730 hc      2316 PE      -0.019800
  13893 H21        22.7130   35.8050    5.3530 hc      2316 PE      -0.019800
  13894 H22        22.7130   36.0450    3.6830 hc      2316 PE      -0.019800
  13895 C1         24.4930   35.2450    4.6430 c3      2316 PE       0.039600
  13896 C2         23.3430   36.2450    4.5630 c3      2316 PE       0.039600
  13897 H11        24.5630   37.8050    5.5030 hc      2317 PE      -0.019800
  13898 H12        24.2230   38.0050    3.8330 hc      2317 PE      -0.019800
  13899 H21        21.9530   38.0650    5.8130 hc      2317 PE      -0.019800
  13900 H22        21.8130   38.6150    4.2030 hc      2317 PE      -0.019800
  13901 C1         23.7430   37.7050    4.7830 c3      2317 PE       0.039600
  13902 C2         22.5230   38.5850    5.0430 c3      2317 PE       0.039600
  13903 H11        23.6130   40.4950    4.7830 hc      2318 PE      -0.019800
  13904 H12        22.0630   40.7550    5.4130 hc      2318 PE      -0.019800
  13905 H21        24.5230   39.6150    6.9630 hc      2318 PE      -0.019800
  13906 H22        22.9530   39.4850    7.6130 hc      2318 PE      -0.019800
  13907 C1         22.8830   40.0250    5.4530 c3      2318 PE       0.039600
  13908 C2         23.5130   40.0450    6.8630 c3      2318 PE       0.039600
  13909 H11        24.2530  -37.9050    6.5030 hc      2319 PE      -0.019800
  13910 H12        22.7430  -37.9450    7.1930 hc      2319 PE      -0.019800
  13911 H21        25.1030  -38.9250    8.9630 hc      2319 PE      -0.019800
  13912 H22        23.4830  -38.7150    9.3830 hc      2319 PE      -0.019800
  13913 C1         23.7130  -38.4350    7.2930 c3      2319 PE       0.039600
  13914 C2         24.2330  -38.3050    8.6930 c3      2319 PE       0.039600
  13915 H11        23.5230  -36.3650    9.1430 hc      2320 PE      -0.019800
  13916 H12        24.7830  -37.0650   10.1930 hc      2320 PE      -0.019800
  13917 H21        25.6430  -36.2750    7.3530 hc      2320 PE      -0.019800
  13918 H22        26.6030  -36.5650    8.7530 hc      2320 PE      -0.019800
  13919 C1         24.4830  -36.8850    9.1530 c3      2320 PE       0.039600
  13920 C2         25.6730  -36.0850    8.4330 c3      2320 PE       0.039600
  13921 H11        24.6930  -34.2250    8.0730 hc      2321 PE      -0.019800
  13922 H12        25.4430  -34.4250    9.7330 hc      2321 PE      -0.019800
  13923 H21        26.3230  -32.6950    8.2730 hc      2321 PE      -0.019800
  13924 H22        26.8130  -33.9150    7.0730 hc      2321 PE      -0.019800
  13925 C1         25.5530  -34.5850    8.6530 c3      2321 PE       0.039600
  13926 C2         26.7230  -33.7150    8.1530 c3      2321 PE       0.039600
  13927 H11        27.9230  -33.5450   10.0630 hc      2322 PE      -0.019800
  13928 H12        28.3030  -34.8750    9.0530 hc      2322 PE      -0.019800
  13929 H21        28.8230  -31.8550    8.5130 hc      2322 PE      -0.019800
  13930 H22        29.0830  -33.1950    7.3730 hc      2322 PE      -0.019800
  13931 C1         28.0230  -33.8150    9.0030 c3      2322 PE       0.039600
  13932 C2         29.1230  -32.9050    8.4230 c3      2322 PE       0.039600
  13933 H11        30.7230  -32.4950    9.8630 hc      2323 PE      -0.019800
  13934 H12        30.7430  -34.1650    9.0430 hc      2323 PE      -0.019800
  13935 H21        31.4730  -31.4750    8.0130 hc      2323 PE      -0.019800
  13936 H22        31.4030  -32.8250    6.9030 hc      2323 PE      -0.019800
  13937 C1         30.5230  -33.0950    8.9630 c3      2323 PE       0.039600
  13938 C2         31.5730  -32.5650    7.9630 c3      2323 PE       0.039600
  13939 H11        33.1230  -32.4250    9.6230 hc      2324 PE      -0.019800
  13940 H12        32.9730  -33.9750    8.8730 hc      2324 PE      -0.019800
  13941 H21        34.1630  -31.5950    7.5130 hc      2324 PE      -0.019800
  13942 H22        34.2730  -33.3450    6.9530 hc      2324 PE      -0.019800
  13943 C1         32.9430  -32.9050    8.6530 c3      2324 PE       0.039600
  13944 C2         34.1930  -32.6550    7.7930 c3      2324 PE       0.039600
  13945 H11        35.4630  -32.3750    9.6030 hc      2325 PE      -0.019800
  13946 H12        35.7430  -33.9050    8.7230 hc      2325 PE      -0.019800
  13947 H21        36.3730  -31.1350    7.8130 hc      2325 PE      -0.019800
  13948 H22        36.9230  -32.5950    6.9130 hc      2325 PE      -0.019800
  13949 C1         35.4730  -32.8450    8.6030 c3      2325 PE       0.039600
  13950 C2         36.7230  -32.1750    7.9030 c3      2325 PE       0.039600
  13951 H11        38.3330  -31.1850    9.0230 hc      2326 PE      -0.019800
  13952 H12        37.9130  -32.8050    9.6930 hc      2326 PE      -0.019800
  13953 H21        39.4230  -32.2150    7.1330 hc      2326 PE      -0.019800
  13954 H22        38.9730  -33.8250    7.7630 hc      2326 PE      -0.019800
  13955 C1         38.0530  -32.2150    8.7730 c3      2326 PE       0.039600
  13956 C2         39.2530  -32.8050    8.0430 c3      2326 PE       0.039600
  13957 H11       -39.0770  -31.9750    9.2830 hc      2327 PE      -0.019800
  13958 H12       -39.6370  -33.6250    9.6330 hc      2327 PE      -0.019800
  13959 H21       -38.0070  -32.7350    7.3530 hc      2327 PE      -0.019800
  13960 H22       -38.6670  -34.4450    7.4730 hc      2327 PE      -0.019800
  13961 C1        -39.4870  -32.8850    8.8330 c3      2327 PE       0.039600
  13962 C2        -38.3870  -33.5350    8.0130 c3      2327 PE       0.039600
  13963 H11       -36.9270  -32.9150    9.4830 hc      2328 PE      -0.019800
  13964 H12       -37.4970  -34.6150    9.7530 hc      2328 PE      -0.019800
  13965 H21       -35.7670  -33.8650    7.2530 hc      2328 PE      -0.019800
  13966 H22       -36.2570  -35.4550    7.8830 hc      2328 PE      -0.019800
  13967 C1        -37.1770  -33.8750    9.0130 c3      2328 PE       0.039600
  13968 C2        -35.9770  -34.4250    8.1730 c3      2328 PE       0.039600
  13969 H11       -34.5270  -33.4450    9.3130 hc      2329 PE      -0.019800
  13970 H12       -34.7970  -35.1250    9.7630 hc      2329 PE      -0.019800
  13971 H21       -33.1470  -34.0550    7.4230 hc      2329 PE      -0.019800
  13972 H22       -33.8070  -35.6850    7.3930 hc      2329 PE      -0.019800
  13973 C1        -34.6570  -34.4550    8.9030 c3      2329 PE       0.039600
  13974 C2        -33.4570  -34.8850    8.0630 c3      2329 PE       0.039600
  13975 H11       -31.8370  -34.5250    9.6230 hc      2330 PE      -0.019800
  13976 H12       -32.5170  -36.0950    9.7430 hc      2330 PE      -0.019800
  13977 H21       -30.7670  -35.1550    7.4030 hc      2330 PE      -0.019800
  13978 H22       -31.3670  -36.7450    7.5330 hc      2330 PE      -0.019800
  13979 C1        -32.2770  -35.3150    9.0130 c3      2330 PE       0.039600
  13980 C2        -31.1070  -35.8850    8.1530 c3      2330 PE       0.039600
  13981 H11       -29.5170  -35.3450    9.4630 hc      2331 PE      -0.019800
  13982 H12       -30.0170  -37.0650    9.5130 hc      2331 PE      -0.019800
  13983 H21       -28.4570  -36.0650    7.2630 hc      2331 PE      -0.019800
  13984 H22       -28.9370  -37.7650    7.6330 hc      2331 PE      -0.019800
  13985 C1        -29.8470  -36.2050    8.8630 c3      2331 PE       0.039600
  13986 C2        -28.7070  -36.7750    8.0530 c3      2331 PE       0.039600
  13987 H11       -27.3270  -35.8950    9.4030 hc      2332 PE      -0.019800
  13988 H12       -27.6870  -37.4950    9.8630 hc      2332 PE      -0.019800
  13989 H21       -26.0370  -36.6650    7.4130 hc      2332 PE      -0.019800
  13990 H22       -26.4770  -38.3350    7.7630 hc      2332 PE      -0.019800
  13991 C1        -27.4970  -36.8950    8.9730 c3      2332 PE       0.039600
  13992 C2        -26.2570  -37.3650    8.2230 c3      2332 PE       0.039600
  13993 H11       -24.9870  -36.4550    9.5930 hc      2333 PE      -0.019800
  13994 H12       -25.1470  -38.0950    9.9930 hc      2333 PE      -0.019800
  13995 H21       -23.3570  -36.9150    7.7930 hc      2333 PE      -0.019800
  13996 H22       -23.8670  -38.7250    7.7030 hc      2333 PE      -0.019800
  13997 C1        -25.0070  -37.4450    9.1230 c3      2333 PE       0.039600
  13998 C2        -23.7470  -37.8150    8.3030 c3      2333 PE       0.039600
  13999 H11       -22.4770  -37.4350    9.9730 hc      2334 PE      -0.019800
  14000 H12       -22.7470  -39.2050    9.6630 hc      2334 PE      -0.019800
  14001 H21       -20.9570  -37.5650    8.0230 hc      2334 PE      -0.019800
  14002 H22       -21.3570  -39.3450    7.7430 hc      2334 PE      -0.019800
  14003 C1        -22.5570  -38.2250    9.2130 c3      2334 PE       0.039600
  14004 C2        -21.2470  -38.5250    8.4630 c3      2334 PE       0.039600
  14005 H11       -19.8670  -38.1350   10.1330 hc      2335 PE      -0.019800
  14006 H12       -20.3370  -39.7750    9.9930 hc      2335 PE      -0.019800
  14007 H21       -18.4670  -40.2050    8.3730 hc      2335 PE      -0.019800
  14008 H22       -17.8870  -38.8750    9.3330 hc      2335 PE      -0.019800
  14009 C1        -20.0270  -38.9150    9.3730 c3      2335 PE       0.039600
  14010 C2        -18.6470  -39.1450    8.5930 c3      2335 PE       0.039600
  14011 H11       -19.2070  -38.6050    6.5330 hc      2336 PE      -0.019800
  14012 H12       -18.7770  -37.2450    7.5330 hc      2336 PE      -0.019800
  14013 H21       -16.9470  -39.4350    6.5230 hc      2336 PE      -0.019800
  14014 H22       -16.3270  -38.1550    7.4030 hc      2336 PE      -0.019800
  14015 C1        -18.4970  -38.2750    7.3030 c3      2336 PE       0.039600
  14016 C2        -17.1170  -38.3650    6.6730 c3      2336 PE       0.039600
  14017 H11       -17.4970  -37.6050    4.6230 hc      2337 PE      -0.019800
  14018 H12       -17.0570  -36.4450    5.9130 hc      2337 PE      -0.019800
  14019 H21       -15.2670  -38.7250    4.4730 hc      2337 PE      -0.019800
  14020 H22       -14.6370  -37.4550    5.5230 hc      2337 PE      -0.019800
  14021 C1        -16.8270  -37.4250    5.4630 c3      2337 PE       0.039600
  14022 C2        -15.4270  -37.6950    4.8030 c3      2337 PE       0.039600
  14023 H11       -15.9570  -37.0250    2.7830 hc      2338 PE      -0.019800
  14024 H12       -15.3270  -35.7850    3.8230 hc      2338 PE      -0.019800
  14025 H21       -13.8170  -38.2650    2.5330 hc      2338 PE      -0.019800
  14026 H22       -13.0370  -37.1150    3.5730 hc      2338 PE      -0.019800
  14027 C1        -15.1870  -36.8450    3.5430 c3      2338 PE       0.039600
  14028 C2        -13.8570  -37.2050    2.8430 c3      2338 PE       0.039600
  14029 H11       -14.5470  -36.1750    1.1130 hc      2339 PE      -0.019800
  14030 H12       -13.4670  -35.1950    2.1730 hc      2339 PE      -0.019800
  14031 H21       -12.4070  -37.4350    0.5230 hc      2339 PE      -0.019800
  14032 H22       -11.5970  -36.2450    1.6530 hc      2339 PE      -0.019800
  14033 C1        -13.6370  -36.1850    1.7330 c3      2339 PE       0.039600
  14034 C2        -12.4170  -36.4150    0.9430 c3      2339 PE       0.039600
  14035 H11       -13.3470  -35.5150   -0.8670 hc      2340 PE      -0.019800
  14036 H12       -12.3970  -34.4150    0.0830 hc      2340 PE      -0.019800
  14037 H21       -10.9870  -34.8050   -1.8670 hc      2340 PE      -0.019800
  14038 H22       -11.3370  -36.5850   -1.8870 hc      2340 PE      -0.019800
  14039 C1        -12.4070  -35.4450   -0.2870 c3      2340 PE       0.039600
  14040 C2        -11.2270  -35.6850   -1.2670 c3      2340 PE       0.039600
  14041 H11       -21.5570  -23.0450    0.5630 hc      2341 PE      -0.019800
  14042 H12       -20.7570  -22.0650    1.6230 hc      2341 PE      -0.019800
  14043 H21       -19.2770  -21.7850   -0.2370 hc      2341 PE      -0.019800
  14044 H22       -19.5370  -23.3850   -0.7170 hc      2341 PE      -0.019800
  14045 C1        -20.5970  -23.0050    1.0930 c3      2341 PE       0.039600
  14046 C2        -19.3570  -22.7950    0.1830 c3      2341 PE       0.039600
  14047 H11       -18.0970  -22.2750    1.7830 hc      2342 PE      -0.019800
  14048 H12       -18.1170  -24.0050    1.3730 hc      2342 PE      -0.019800
  14049 H21       -16.7870  -21.9650   -0.5570 hc      2342 PE      -0.019800
  14050 H22       -16.8470  -23.6850   -0.7870 hc      2342 PE      -0.019800
  14051 C1        -18.0870  -22.9850    0.9530 c3      2342 PE       0.039600
  14052 C2        -16.7870  -22.9150   -0.0070 c3      2342 PE       0.039600
  14053 H11       -15.2470  -22.0850    1.2330 hc      2343 PE      -0.019800
  14054 H12       -15.2470  -23.8150    1.4030 hc      2343 PE      -0.019800
  14055 H21       -14.3870  -22.1150   -0.9670 hc      2343 PE      -0.019800
  14056 H22       -14.0770  -23.7950   -0.9670 hc      2343 PE      -0.019800
  14057 C1        -15.3670  -23.0150    0.6630 c3      2343 PE       0.039600
  14058 C2        -14.1570  -22.9450   -0.2770 c3      2343 PE       0.039600
  14059 H11       -13.0070  -21.8150    1.2230 hc      2344 PE      -0.019800
  14060 H12       -12.6270  -23.5150    1.1230 hc      2344 PE      -0.019800
  14061 H21       -11.8770  -21.4050   -1.0970 hc      2344 PE      -0.019800
  14062 H22       -11.4370  -23.0850   -1.0470 hc      2344 PE      -0.019800
  14063 C1        -12.8270  -22.6350    0.5130 c3      2344 PE       0.039600
  14064 C2        -11.6770  -22.2250   -0.4070 c3      2344 PE       0.039600
  14065 H11       -10.5270  -21.0250    1.1030 hc      2345 PE      -0.019800
  14066 H12       -10.0970  -22.6750    1.0930 hc      2345 PE      -0.019800
  14067 H21        -9.3170  -20.6850   -1.0770 hc      2345 PE      -0.019800
  14068 H22        -9.0770  -22.3850   -1.3070 hc      2345 PE      -0.019800
  14069 C1        -10.3870  -21.8650    0.4130 c3      2345 PE       0.039600
  14070 C2         -9.1970  -21.6250   -0.5170 c3      2345 PE       0.039600
  14071 H11        -8.0370  -20.7050    1.0730 hc      2346 PE      -0.019800
  14072 H12        -7.5470  -22.3450    0.7630 hc      2346 PE      -0.019800
  14073 H21        -6.9070  -20.1750   -1.3770 hc      2346 PE      -0.019800
  14074 H22        -6.4570  -21.8250   -1.4670 hc      2346 PE      -0.019800
  14075 C1         -7.8570  -21.4150    0.2630 c3      2346 PE       0.039600
  14076 C2         -6.6370  -21.0250   -0.7370 c3      2346 PE       0.039600
  14077 H11        -5.7470  -19.7850    0.6830 hc      2347 PE      -0.019800
  14078 H12        -5.3270  -21.5150    0.8330 hc      2347 PE      -0.019800
  14079 H21        -4.4470  -19.6250   -1.5670 hc      2347 PE      -0.019800
  14080 H22        -4.0770  -21.3350   -1.4270 hc      2347 PE      -0.019800
  14081 C1         -5.4870  -20.6850    0.1230 c3      2347 PE       0.039600
  14082 C2         -4.2670  -20.4250   -0.8470 c3      2347 PE       0.039600
  14083 H11        -3.0770  -19.2950    0.6330 hc      2348 PE      -0.019800
  14084 H12        -2.7770  -21.0150    0.6130 hc      2348 PE      -0.019800
  14085 H21        -1.7870  -19.0950   -1.6270 hc      2348 PE      -0.019800
  14086 H22        -1.6970  -20.9150   -1.5470 hc      2348 PE      -0.019800
  14087 C1         -2.9570  -20.1450   -0.0370 c3      2348 PE       0.039600
  14088 C2         -1.7970  -19.9750   -0.9870 c3      2348 PE       0.039600
  14089 H11        -0.8670  -18.9750    0.6730 hc      2349 PE      -0.019800
  14090 H12        -0.4670  -20.6750    0.5330 hc      2349 PE      -0.019800
  14091 H21         0.6730  -18.5550   -1.3570 hc      2349 PE      -0.019800
  14092 H22         0.9130  -20.3250   -1.4470 hc      2349 PE      -0.019800
  14093 C1         -0.5670  -19.7550   -0.0470 c3      2349 PE       0.039600
  14094 C2          0.7430  -19.4750   -0.7670 c3      2349 PE       0.039600
  14095 H11         1.8730  -18.4550    0.9330 hc      2350 PE      -0.019800
  14096 H12         1.9830  -20.0450    1.0130 hc      2350 PE      -0.019800
  14097 H21         3.0630  -18.5850   -1.3670 hc      2350 PE      -0.019800
  14098 H22         3.4130  -20.2350   -1.0970 hc      2350 PE      -0.019800
  14099 C1          1.9230  -19.2850    0.2230 c3      2350 PE       0.039600
  14100 C2          3.2630  -19.2950   -0.5570 c3      2350 PE       0.039600
  14101 H11         4.2830  -17.6650    0.3930 hc      2351 PE      -0.019800
  14102 H12         4.5530  -19.1550    1.1830 hc      2351 PE      -0.019800
  14103 H21         5.8230  -18.2250   -1.5070 hc      2351 PE      -0.019800
  14104 H22         5.8330  -19.9050   -1.0870 hc      2351 PE      -0.019800
  14105 C1          4.4230  -18.7350    0.1730 c3      2351 PE       0.039600
  14106 C2          5.7930  -18.9050   -0.6370 c3      2351 PE       0.039600
  14107 H11         6.8430  -17.5650    0.6530 hc      2352 PE      -0.019800
  14108 H12         7.2130  -19.3350    1.0230 hc      2352 PE      -0.019800
  14109 H21         8.2630  -17.8250   -1.3370 hc      2352 PE      -0.019800
  14110 H22         8.4530  -19.6250   -0.8270 hc      2352 PE      -0.019800
  14111 C1          7.0330  -18.5750    0.2530 c3      2352 PE       0.039600
  14112 C2          8.3730  -18.5650   -0.5370 c3      2352 PE       0.039600
  14113 H11         9.1730  -17.3050    0.9430 hc      2353 PE      -0.019800
  14114 H12         9.7230  -19.0050    1.0930 hc      2353 PE      -0.019800
  14115 H21        10.4930  -17.0850   -1.2170 hc      2353 PE      -0.019800
  14116 H22        11.0630  -18.7050   -1.0170 hc      2353 PE      -0.019800
  14117 C1          9.5230  -18.1850    0.3930 c3      2353 PE       0.039600
  14118 C2         10.7830  -17.8150   -0.4470 c3      2353 PE       0.039600
  14119 H11        12.0030  -16.5350    0.8930 hc      2354 PE      -0.019800
  14120 H12        12.0030  -18.2050    1.1530 hc      2354 PE      -0.019800
  14121 H21        13.2730  -16.7950   -1.1970 hc      2354 PE      -0.019800
  14122 H22        13.5230  -18.4650   -0.8270 hc      2354 PE      -0.019800
  14123 C1         12.0530  -17.4750    0.3430 c3      2354 PE       0.039600
  14124 C2         13.4130  -17.4750   -0.3570 c3      2354 PE       0.039600
  14125 H11        14.7130  -16.0950    0.9830 hc      2355 PE      -0.019800
  14126 H12        14.9130  -17.7550    1.3630 hc      2355 PE      -0.019800
  14127 H21        15.7130  -16.4650   -1.2070 hc      2355 PE      -0.019800
  14128 H22        16.2530  -18.0050   -0.7070 hc      2355 PE      -0.019800
  14129 C1         14.7330  -17.0850    0.5230 c3      2355 PE       0.039600
  14130 C2         16.0430  -17.0050   -0.3070 c3      2355 PE       0.039600
  14131 H11        17.2330  -15.3750    0.5530 hc      2356 PE      -0.019800
  14132 H12        17.4630  -16.8250    1.4430 hc      2356 PE      -0.019800
  14133 H21        18.5730  -16.1450   -1.3570 hc      2356 PE      -0.019800
  14134 H22        18.7330  -17.7750   -0.6670 hc      2356 PE      -0.019800
  14135 C1         17.3530  -16.4550    0.4130 c3      2356 PE       0.039600
  14136 C2         18.6730  -16.7050   -0.4270 c3      2356 PE       0.039600
  14137 H11        19.8230  -15.0750    0.6130 hc      2357 PE      -0.019800
  14138 H12        20.0130  -16.6050    1.3730 hc      2357 PE      -0.019800
  14139 H21        21.1230  -15.9650   -1.2670 hc      2357 PE      -0.019800
  14140 H22        21.4130  -17.5250   -0.2870 hc      2357 PE      -0.019800
  14141 C1         19.9230  -16.1450    0.3830 c3      2357 PE       0.039600
  14142 C2         21.2630  -16.4350   -0.2870 c3      2357 PE       0.039600
  14143 H11        22.2830  -14.8150    0.7330 hc      2358 PE      -0.019800
  14144 H12        22.5930  -16.3850    1.5230 hc      2358 PE      -0.019800
  14145 H21        23.6830  -15.3650   -1.1870 hc      2358 PE      -0.019800
  14146 H22        24.1430  -16.9350   -0.5170 hc      2358 PE      -0.019800
  14147 C1         22.4430  -15.8850    0.5530 c3      2358 PE       0.039600
  14148 C2         23.7830  -15.9350   -0.2470 c3      2358 PE       0.039600
  14149 H11        24.5930  -14.1650    0.7930 hc      2359 PE      -0.019800
  14150 H12        25.0230  -15.6750    1.5930 hc      2359 PE      -0.019800
  14151 H21        26.0430  -14.7450   -1.1570 hc      2359 PE      -0.019800
  14152 H22        26.6830  -16.1050   -0.2770 hc      2359 PE      -0.019800
  14153 C1         24.9230  -15.1950    0.6030 c3      2359 PE       0.039600
  14154 C2         26.2630  -15.0950   -0.1370 c3      2359 PE       0.039600
  14155 H11        27.2030  -13.2250    0.7730 hc      2360 PE      -0.019800
  14156 H12        27.5030  -14.7550    1.5130 hc      2360 PE      -0.019800
  14157 H21        28.6030  -13.8850   -1.1970 hc      2360 PE      -0.019800
  14158 H22        28.9430  -15.4650   -0.4170 hc      2360 PE      -0.019800
  14159 C1         27.3830  -14.2750    0.5330 c3      2360 PE       0.039600
  14160 C2         28.6930  -14.4050   -0.2370 c3      2360 PE       0.039600
  14161 H11        29.6030  -12.9450    1.1130 hc      2361 PE      -0.019800
  14162 H12        30.0130  -14.6650    1.4430 hc      2361 PE      -0.019800
  14163 H21        31.0830  -13.1050   -0.9970 hc      2361 PE      -0.019800
  14164 H22        31.3830  -14.7450   -0.5370 hc      2361 PE      -0.019800
  14165 C1         29.8530  -13.9050    0.6530 c3      2361 PE       0.039600
  14166 C2         31.1530  -13.7550   -0.1170 c3      2361 PE       0.039600
  14167 H11        31.9930  -12.3650    1.3330 hc      2362 PE      -0.019800
  14168 H12        32.5530  -14.0850    1.4430 hc      2362 PE      -0.019800
  14169 H21        33.3430  -12.3350   -0.9070 hc      2362 PE      -0.019800
  14170 H22        33.7130  -14.0050   -0.6570 hc      2362 PE      -0.019800
  14171 C1         32.2530  -13.2650    0.7730 c3      2362 PE       0.039600
  14172 C2         33.5430  -13.0650   -0.1170 c3      2362 PE       0.039600
  14173 H11        34.8830  -11.5150    0.9130 hc      2363 PE      -0.019800
  14174 H12        35.2030  -13.1550    1.4530 hc      2363 PE      -0.019800
  14175 H21        35.7130  -12.0750   -1.2670 hc      2363 PE      -0.019800
  14176 H22        36.4630  -13.5050   -0.6270 hc      2363 PE      -0.019800
  14177 C1         34.8930  -12.5650    0.5830 c3      2363 PE       0.039600
  14178 C2         36.1030  -12.5050   -0.3370 c3      2363 PE       0.039600
  14179 H11        37.1130  -10.6150    0.3730 hc      2364 PE      -0.019800
  14180 H12        37.5330  -12.1050    1.2530 hc      2364 PE      -0.019800
  14181 H21        38.3130  -11.3950   -1.5770 hc      2364 PE      -0.019800
  14182 H22        38.8430  -12.8250   -0.7670 hc      2364 PE      -0.019800
  14183 C1         37.3330  -11.6850    0.2630 c3      2364 PE       0.039600
  14184 C2         38.5830  -11.7750   -0.5870 c3      2364 PE       0.039600
  14185 H11       -40.3570   -9.8950   -0.2570 hc      2365 PE      -0.019800
  14186 H12       -40.1670  -11.0950    1.1230 hc      2365 PE      -0.019800
  14187 H21       -38.9370  -11.2950   -1.5870 hc      2365 PE      -0.019800
  14188 H22       -38.5370  -12.3450   -0.2170 hc      2365 PE      -0.019800
  14189 C1        -40.2170  -10.9450    0.0330 c3      2365 PE       0.039600
  14190 C2        -38.8270  -11.3150   -0.4970 c3      2365 PE       0.039600
  14191 H11       -37.6970   -9.5850   -0.9270 hc      2366 PE      -0.019800
  14192 H12       -37.8470   -9.9750    0.8030 hc      2366 PE      -0.019800
  14193 H21       -36.2270  -11.7950   -1.0570 hc      2366 PE      -0.019800
  14194 H22       -36.1370  -11.6250    0.7230 hc      2366 PE      -0.019800
  14195 C1        -37.7070  -10.4050   -0.1970 c3      2366 PE       0.039600
  14196 C2        -36.3170  -11.0950   -0.2170 c3      2366 PE       0.039600
  14197 H11       -35.0870   -9.7550   -1.3770 hc      2367 PE      -0.019800
  14198 H12       -35.0670   -9.3850    0.2130 hc      2367 PE      -0.019800
  14199 H21       -32.9070  -10.2050   -0.6470 hc      2367 PE      -0.019800
  14200 H22       -33.6070  -11.8150   -0.9770 hc      2367 PE      -0.019800
  14201 C1        -35.0270  -10.2750   -0.4170 c3      2367 PE       0.039600
  14202 C2        -33.6470  -10.9450   -0.3070 c3      2367 PE       0.039600
  14203 H11       -33.8970  -12.3650    1.3430 hc      2368 PE      -0.019800
  14204 H12       -32.2470  -11.9650    0.8630 hc      2368 PE      -0.019800
  14205 H21       -34.1170  -10.2050    2.5930 hc      2368 PE      -0.019800
  14206 H22       -32.7270   -9.4750    1.6830 hc      2368 PE      -0.019800
  14207 C1        -33.2370  -11.5350    1.0630 c3      2368 PE       0.039600
  14208 C2        -33.1470  -10.3950    2.1230 c3      2368 PE       0.039600
  14209 H11       -32.5370  -11.5650    3.8330 hc      2369 PE      -0.019800
  14210 H12       -31.1270  -10.8450    2.9830 hc      2369 PE      -0.019800
  14211 H21       -31.6770   -9.8750    5.1730 hc      2369 PE      -0.019800
  14212 H22       -33.1770   -9.1750    4.5230 hc      2369 PE      -0.019800
  14213 C1        -32.1670  -10.6750    3.3130 c3      2369 PE       0.039600
  14214 C2        -32.1570   -9.4850    4.2730 c3      2369 PE       0.039600
  14215 H11       -31.6870   -7.6150    3.2130 hc      2370 PE      -0.019800
  14216 H12       -30.9170   -7.6050    4.8330 hc      2370 PE      -0.019800
  14217 H21       -29.2170   -8.0550    2.8330 hc      2370 PE      -0.019800
  14218 H22       -29.4070   -9.2950    4.1330 hc      2370 PE      -0.019800
  14219 C1        -31.1870   -8.2250    3.9730 c3      2370 PE       0.039600
  14220 C2        -29.9070   -8.7350    3.3430 c3      2370 PE       0.039600
  14221 H11         6.6130   24.7650   -8.7370 hc      2371 PE      -0.019800
  14222 H12         6.5530   24.5550   -6.9870 hc      2371 PE      -0.019800
  14223 H21         4.2830   24.5750   -6.9370 hc      2371 PE      -0.019800
  14224 H22         4.3930   24.3050   -8.7670 hc      2371 PE      -0.019800
  14225 C1          6.1230   25.1250   -7.8270 c3      2371 PE       0.039600
  14226 C2          4.6030   24.9550   -7.9070 c3      2371 PE       0.039600
  14227 H11         4.2030   26.9550   -7.2670 hc      2372 PE      -0.019800
  14228 H12         4.3130   26.8650   -8.9970 hc      2372 PE      -0.019800
  14229 H21         2.0130   25.9950   -7.1970 hc      2372 PE      -0.019800
  14230 H22         2.1630   25.6050   -9.0170 hc      2372 PE      -0.019800
  14231 C1          3.9130   26.3350   -8.1170 c3      2372 PE       0.039600
  14232 C2          2.3830   26.2850   -8.1870 c3      2372 PE       0.039600
  14233 H11         2.3730   28.4150   -8.1770 hc      2373 PE      -0.019800
  14234 H12         1.9430   27.7250   -9.7570 hc      2373 PE      -0.019800
  14235 H21         0.0530   27.2450   -7.4270 hc      2373 PE      -0.019800
  14236 H22        -0.2670   27.2850   -9.1270 hc      2373 PE      -0.019800
  14237 C1          1.7530   27.6650   -8.6770 c3      2373 PE       0.039600
  14238 C2          0.2930   27.7950   -8.3370 c3      2373 PE       0.039600
  14239 H11         0.3330   29.8450   -7.4970 hc      2374 PE      -0.019800
  14240 H12         0.0830   29.7750   -9.2070 hc      2374 PE      -0.019800
  14241 H21        -2.1470   28.7650   -7.3370 hc      2374 PE      -0.019800
  14242 H22        -2.1270   28.9750   -9.0970 hc      2374 PE      -0.019800
  14243 C1         -0.1370   29.2350   -8.2870 c3      2374 PE       0.039600
  14244 C2         -1.6870   29.3350   -8.1570 c3      2374 PE       0.039600
  14245 H11        -1.7970   31.2650   -7.2770 hc      2375 PE      -0.019800
  14246 H12        -1.8970   31.3650   -9.0070 hc      2375 PE      -0.019800
  14247 H21        -4.0770   30.5050   -6.9870 hc      2375 PE      -0.019800
  14248 H22        -4.1070   29.9950   -8.7070 hc      2375 PE      -0.019800
  14249 C1         -2.2170   30.7550   -8.1470 c3      2375 PE       0.039600
  14250 C2         -3.7970   30.7850   -8.0170 c3      2375 PE       0.039600
  14251 H11        -4.1270   32.9150   -7.5970 hc      2376 PE      -0.019800
  14252 H12        -4.1170   32.5550   -9.3270 hc      2376 PE      -0.019800
  14253 H21        -6.1570   31.8950   -7.0970 hc      2376 PE      -0.019800
  14254 H22        -6.4570   31.4150   -8.7470 hc      2376 PE      -0.019800
  14255 C1         -4.4370   32.1850   -8.3470 c3      2376 PE       0.039600
  14256 C2         -5.9870   32.1950   -8.1370 c3      2376 PE       0.039600
  14257 H11        -6.3670   34.1750   -7.4670 hc      2377 PE      -0.019800
  14258 H12        -6.2570   34.0850   -9.2270 hc      2377 PE      -0.019800
  14259 H21        -8.4070   33.0150   -7.4570 hc      2377 PE      -0.019800
  14260 H22        -8.4770   33.1050   -9.3170 hc      2377 PE      -0.019800
  14261 C1         -6.6470   33.5750   -8.3370 c3      2377 PE       0.039600
  14262 C2         -8.1570   33.5750   -8.3670 c3      2377 PE       0.039600
  14263 H11        -8.4270   35.4050   -7.2370 hc      2378 PE      -0.019800
  14264 H12        -8.3570   35.7450   -8.8770 hc      2378 PE      -0.019800
  14265 H21       -10.7970   34.1450   -7.7570 hc      2378 PE      -0.019800
  14266 H22       -10.5970   34.8550   -9.3470 hc      2378 PE      -0.019800
  14267 C1         -8.7570   34.9850   -8.1970 c3      2378 PE       0.039600
  14268 C2        -10.3270   34.9750   -8.2970 c3      2378 PE       0.039600
  14269 H11       -10.4670   36.5450   -6.9470 hc      2379 PE      -0.019800
  14270 H12       -10.6070   37.0250   -8.6870 hc      2379 PE      -0.019800
  14271 H21       -12.7670   36.1850   -6.9270 hc      2379 PE      -0.019800
  14272 H22       -12.9270   35.5750   -8.5670 hc      2379 PE      -0.019800
  14273 C1        -10.9070   36.3050   -7.9270 c3      2379 PE       0.039600
  14274 C2        -12.4170   36.3250   -7.9570 c3      2379 PE       0.039600
  14275 H11       -12.5270   38.5350   -7.7070 hc      2380 PE      -0.019800
  14276 H12       -12.6370   37.8750   -9.3270 hc      2380 PE      -0.019800
  14277 H21       -14.7570   37.8850   -7.1670 hc      2380 PE      -0.019800
  14278 H22       -15.1170   37.0650   -8.7870 hc      2380 PE      -0.019800
  14279 C1        -12.9870   37.7250   -8.2970 c3      2380 PE       0.039600
  14280 C2        -14.5270   37.8050   -8.2370 c3      2380 PE       0.039600
  14281 H11       -14.2670   39.9850   -8.6270 hc      2381 PE      -0.019800
  14282 H12       -15.0870   39.0550   -9.8570 hc      2381 PE      -0.019800
  14283 H21       -16.0370   40.1150   -7.1970 hc      2381 PE      -0.019800
  14284 H22       -16.9870   38.8450   -7.9570 hc      2381 PE      -0.019800
  14285 C1        -14.9670   39.1550   -8.7670 c3      2381 PE       0.039600
  14286 C2        -16.3570   39.7150   -8.1670 c3      2381 PE       0.039600
  14287 H11       -16.2470  -38.6150   -9.5170 hc      2382 PE      -0.019800
  14288 H12       -17.4670  -39.8750   -9.9970 hc      2382 PE      -0.019800
  14289 H21       -18.4670  -37.7050   -9.2670 hc      2382 PE      -0.019800
  14290 H22       -17.7670  -37.8250   -7.7170 hc      2382 PE      -0.019800
  14291 C1        -17.0170  -39.3050   -9.1770 c3      2382 PE       0.039600
  14292 C2        -18.1670  -38.4450   -8.5170 c3      2382 PE       0.039600
  14293 H11       -19.7670  -39.8550   -8.8970 hc      2383 PE      -0.019800
  14294 H12       -19.1370  -40.0250   -7.3270 hc      2383 PE      -0.019800
  14295 H21       -20.5770  -37.4050   -8.1170 hc      2383 PE      -0.019800
  14296 H22       -20.2170  -37.8250   -6.5070 hc      2383 PE      -0.019800
  14297 C1        -19.4170  -39.2450   -8.0470 c3      2383 PE       0.039600
  14298 C2        -20.5070  -38.2850   -7.4570 c3      2383 PE       0.039600
  14299 H11       -22.2570  -39.4950   -8.2070 hc      2384 PE      -0.019800
  14300 H12       -22.0870  -39.5150   -6.4970 hc      2384 PE      -0.019800
  14301 H21       -23.1270  -37.1350   -8.1770 hc      2384 PE      -0.019800
  14302 H22       -22.7070  -36.9750   -6.3770 hc      2384 PE      -0.019800
  14303 C1        -21.9870  -38.8450   -7.3670 c3      2384 PE       0.039600
  14304 C2        -23.0270  -37.6250   -7.2070 c3      2384 PE       0.039600
  14305 H11       -24.6170  -38.9550   -7.6270 hc      2385 PE      -0.019800
  14306 H12       -24.4570  -38.6150   -5.8870 hc      2385 PE      -0.019800
  14307 H21       -25.5070  -36.6850   -8.0370 hc      2385 PE      -0.019800
  14308 H22       -25.4570  -36.4150   -6.2670 hc      2385 PE      -0.019800
  14309 C1        -24.4370  -38.1650   -6.8870 c3      2385 PE       0.039600
  14310 C2        -25.5970  -37.1650   -7.0570 c3      2385 PE       0.039600
  14311 H11       -26.8870  -38.8550   -7.2670 hc      2386 PE      -0.019800
  14312 H12       -27.0070  -38.1250   -5.8070 hc      2386 PE      -0.019800
  14313 H21       -28.0670  -37.3050   -8.5070 hc      2386 PE      -0.019800
  14314 H22       -28.0170  -35.9950   -7.3670 hc      2386 PE      -0.019800
  14315 C1        -26.9470  -37.8350   -6.8670 c3      2386 PE       0.039600
  14316 C2        -28.1570  -37.0850   -7.4370 c3      2386 PE       0.039600
  14317 H11       -29.7270  -38.5150   -6.9370 hc      2387 PE      -0.019800
  14318 H12       -29.7870  -37.1150   -5.8870 hc      2387 PE      -0.019800
  14319 H21       -30.6270  -37.0950   -8.7970 hc      2387 PE      -0.019800
  14320 H22       -30.7970  -35.7150   -7.5070 hc      2387 PE      -0.019800
  14321 C1        -29.6170  -37.4250   -6.9270 c3      2387 PE       0.039600
  14322 C2        -30.7870  -36.7850   -7.7570 c3      2387 PE       0.039600
  14323 H11       -32.0270  -38.3650   -7.1370 hc      2388 PE      -0.019800
  14324 H12       -32.2670  -36.7950   -6.2370 hc      2388 PE      -0.019800
  14325 H21       -33.2270  -37.5950   -9.0570 hc      2388 PE      -0.019800
  14326 H22       -33.1870  -35.9550   -8.6070 hc      2388 PE      -0.019800
  14327 C1        -32.1070  -37.2750   -7.2070 c3      2388 PE       0.039600
  14328 C2        -33.2170  -36.9550   -8.1570 c3      2388 PE       0.039600
  14329 H11       -34.4770  -38.0650   -6.7570 hc      2389 PE      -0.019800
  14330 H12       -34.7670  -36.3150   -6.7770 hc      2389 PE      -0.019800
  14331 H21       -35.6070  -36.9350   -9.2970 hc      2389 PE      -0.019800
  14332 H22       -36.6770  -36.7650   -7.9870 hc      2389 PE      -0.019800
  14333 C1        -34.5370  -37.1850   -7.4070 c3      2389 PE       0.039600
  14334 C2        -35.8170  -37.3550   -8.3070 c3      2389 PE       0.039600
  14335 H11       -36.4970  -39.1950   -7.3570 hc      2390 PE      -0.019800
  14336 H12       -37.2870  -38.8750   -8.9170 hc      2390 PE      -0.019800
  14337 H21       -34.8370  -39.4950   -9.9070 hc      2390 PE      -0.019800
  14338 H22       -35.9370  -40.7150   -9.4370 hc      2390 PE      -0.019800
  14339 C1        -36.3270  -38.8550   -8.3870 c3      2390 PE       0.039600
  14340 C2        -35.3170  -39.9150   -9.0070 c3      2390 PE       0.039600
  14341 H11       -33.4670   40.1050   -7.7670 hc      2391 PE      -0.019800
  14342 H12       -34.7570   39.1050   -7.1170 hc      2391 PE      -0.019800
  14343 H21       -33.2870   38.5550   -9.7170 hc      2391 PE      -0.019800
  14344 H22       -34.2770   37.3750   -8.8670 hc      2391 PE      -0.019800
  14345 C1        -34.2770   39.4150   -8.0470 c3      2391 PE       0.039600
  14346 C2        -33.5770   38.2050   -8.7170 c3      2391 PE       0.039600
  14347 H11       -31.8170   38.5450   -7.5370 hc      2392 PE      -0.019800
  14348 H12       -32.8070   37.2850   -6.8870 hc      2392 PE      -0.019800
  14349 H21       -30.9070   36.9850   -9.3770 hc      2392 PE      -0.019800
  14350 H22       -32.3570   35.9550   -9.0270 hc      2392 PE      -0.019800
  14351 C1        -32.4370   37.6850   -7.8370 c3      2392 PE       0.039600
  14352 C2        -31.5670   36.5750   -8.5970 c3      2392 PE       0.039600
  14353 H11       -29.8670   36.4950   -7.2670 hc      2393 PE      -0.019800
  14354 H12       -31.1270   35.2350   -6.9070 hc      2393 PE      -0.019800
  14355 H21       -29.3070   35.2350   -9.3470 hc      2393 PE      -0.019800
  14356 H22       -30.5970   34.0050   -8.9170 hc      2393 PE      -0.019800
  14357 C1        -30.5770   35.7650   -7.6870 c3      2393 PE       0.039600
  14358 C2        -29.8670   34.7250   -8.5470 c3      2393 PE       0.039600
  14359 H11       -28.0870   34.4950   -7.4270 hc      2394 PE      -0.019800
  14360 H12       -29.3570   33.5450   -6.7170 hc      2394 PE      -0.019800
  14361 H21       -27.8170   32.9650   -9.3270 hc      2394 PE      -0.019800
  14362 H22       -29.2370   32.0250   -8.8170 hc      2394 PE      -0.019800
  14363 C1        -28.9370   33.8550   -7.6870 c3      2394 PE       0.039600
  14364 C2        -28.3470   32.5650   -8.4570 c3      2394 PE       0.039600
  14365 H11       -26.8870   32.3750   -6.9470 hc      2395 PE      -0.019800
  14366 H12       -28.0970   31.0950   -6.8670 hc      2395 PE      -0.019800
  14367 H21       -26.0470   31.3950   -9.1070 hc      2395 PE      -0.019800
  14368 H22       -27.2870   30.1150   -9.0770 hc      2395 PE      -0.019800
  14369 C1        -27.4870   31.6850   -7.5570 c3      2395 PE       0.039600
  14370 C2        -26.6470   30.7450   -8.4570 c3      2395 PE       0.039600
  14371 H11       -25.1970   30.3950   -6.8870 hc      2396 PE      -0.019800
  14372 H12       -26.4370   29.1950   -7.0070 hc      2396 PE      -0.019800
  14373 H21       -24.2370   29.5450   -9.1270 hc      2396 PE      -0.019800
  14374 H22       -25.4170   28.1850   -8.8370 hc      2396 PE      -0.019800
  14375 C1        -25.7670   29.8150   -7.6170 c3      2396 PE       0.039600
  14376 C2        -24.7770   28.9450   -8.3770 c3      2396 PE       0.039600
  14377 H11       -23.3570   28.7850   -6.7070 hc      2397 PE      -0.019800
  14378 H12       -24.1970   27.2850   -7.0170 hc      2397 PE      -0.019800
  14379 H21       -22.0970   28.4450   -8.8970 hc      2397 PE      -0.019800
  14380 H22       -23.0370   26.8950   -9.1770 hc      2397 PE      -0.019800
  14381 C1        -23.7370   28.1450   -7.5170 c3      2397 PE       0.039600
  14382 C2        -22.5670   27.5650   -8.4470 c3      2397 PE       0.039600
  14383 H11       -21.1170   27.3750   -6.9470 hc      2398 PE      -0.019800
  14384 H12       -22.0070   25.8650   -7.3470 hc      2398 PE      -0.019800
  14385 H21       -19.7570   27.1850   -9.0070 hc      2398 PE      -0.019800
  14386 H22       -20.7170   25.9050   -9.5870 hc      2398 PE      -0.019800
  14387 C1        -21.5570   26.7750   -7.7470 c3      2398 PE       0.039600
  14388 C2        -20.3070   26.3050   -8.6470 c3      2398 PE       0.039600
  14389 H11       -18.9770   25.8450   -7.0970 hc      2399 PE      -0.019800
  14390 H12       -20.1070   24.4850   -7.5470 hc      2399 PE      -0.019800
  14391 H21       -17.8470   25.5750   -9.1970 hc      2399 PE      -0.019800
  14392 H22       -19.0170   24.3350   -9.7170 hc      2399 PE      -0.019800
  14393 C1        -19.4670   25.2950   -7.9070 c3      2399 PE       0.039600
  14394 C2        -18.4870   24.7550   -8.8570 c3      2399 PE       0.039600
  14395 H11       -17.3270   23.8150   -7.2370 hc      2400 PE      -0.019800
  14396 H12       -18.4570   22.8150   -8.1070 hc      2400 PE      -0.019800
  14397 H21       -16.1470   22.0250   -8.7370 hc      2400 PE      -0.019800
  14398 H22       -15.5470   23.5150   -9.0370 hc      2400 PE      -0.019800
  14399 C1        -17.6870   23.5850   -8.2370 c3      2400 PE       0.039600
  14400 C2        -16.5070   22.9850   -9.1170 c3      2400 PE       0.039600
  14401 H11        32.4330   -3.3850    9.8230 hc      2401 PE      -0.019800
  14402 H12        33.3530   -3.3450    8.3230 hc      2401 PE      -0.019800
  14403 H21        31.8830   -5.3150    7.4730 hc      2401 PE      -0.019800
  14404 H22        31.3030   -3.5850    7.4630 hc      2401 PE      -0.019800
  14405 C1         32.8630   -4.0150    9.0330 c3      2401 PE       0.039600
  14406 C2         31.6330   -4.4350    8.0730 c3      2401 PE       0.039600
  14407 H11        30.6730   -5.5550    9.6930 hc      2402 PE      -0.019800
  14408 H12        30.0530   -3.8950    9.1930 hc      2402 PE      -0.019800
  14409 H21        29.6330   -6.5250    7.7230 hc      2402 PE      -0.019800
  14410 H22        29.0830   -4.9950    7.1530 hc      2402 PE      -0.019800
  14411 C1         30.4530   -4.8650    8.8730 c3      2402 PE       0.039600
  14412 C2         29.2730   -5.5450    8.0830 c3      2402 PE       0.039600
  14413 H11        28.4930   -6.5050    9.7130 hc      2403 PE      -0.019800
  14414 H12        27.5730   -4.9650    9.3630 hc      2403 PE      -0.019800
  14415 H21        27.3830   -7.6750    8.1130 hc      2403 PE      -0.019800
  14416 H22        26.7230   -6.2250    7.3330 hc      2403 PE      -0.019800
  14417 C1         28.1130   -5.8250    8.9430 c3      2403 PE       0.039600
  14418 C2         27.0130   -6.6650    8.2930 c3      2403 PE       0.039600
  14419 H11        25.8530   -7.0050   10.1730 hc      2404 PE      -0.019800
  14420 H12        25.4730   -5.6350    9.4430 hc      2404 PE      -0.019800
  14421 H21        24.8130   -8.0650    7.7930 hc      2404 PE      -0.019800
  14422 H22        24.2030   -6.4350    7.4430 hc      2404 PE      -0.019800
  14423 C1         25.6430   -6.6750    9.1430 c3      2404 PE       0.039600
  14424 C2         24.4530   -7.1350    8.2530 c3      2404 PE       0.039600
  14425 H11        23.4130   -8.0550   10.0030 hc      2405 PE      -0.019800
  14426 H12        22.8830   -6.4650    9.5330 hc      2405 PE      -0.019800
  14427 H21        22.2530   -9.0050    7.7430 hc      2405 PE      -0.019800
  14428 H22        21.8230   -7.3050    7.3230 hc      2405 PE      -0.019800
  14429 C1         23.2330   -7.4150    9.1230 c3      2405 PE       0.039600
  14430 C2         22.0330   -8.0050    8.1330 c3      2405 PE       0.039600
  14431 H11        20.9330   -8.6950    9.8530 hc      2406 PE      -0.019800
  14432 H12        20.4130   -7.2250    9.2630 hc      2406 PE      -0.019800
  14433 H21        19.8630   -9.8450    8.0630 hc      2406 PE      -0.019800
  14434 H22        19.3930   -8.4250    7.1930 hc      2406 PE      -0.019800
  14435 C1         20.7630   -8.1950    8.8930 c3      2406 PE       0.039600
  14436 C2         19.5530   -8.7950    8.2130 c3      2406 PE       0.039600
  14437 H11        18.4230   -9.2950    9.9530 hc      2407 PE      -0.019800
  14438 H12        18.2430   -7.5850    9.4530 hc      2407 PE      -0.019800
  14439 H21        17.4430   -9.9750    7.7530 hc      2407 PE      -0.019800
  14440 H22        16.9130   -8.3250    7.5330 hc      2407 PE      -0.019800
  14441 C1         18.2930   -8.6250    9.1030 c3      2407 PE       0.039600
  14442 C2         17.0930   -9.0850    8.2930 c3      2407 PE       0.039600
  14443 H11        15.8930  -10.0850    9.7830 hc      2408 PE      -0.019800
  14444 H12        15.5230   -8.4350    9.7030 hc      2408 PE      -0.019800
  14445 H21        14.7930  -10.5150    7.6730 hc      2408 PE      -0.019800
  14446 H22        14.3930   -8.7950    7.3830 hc      2408 PE      -0.019800
  14447 C1         15.7530   -9.2850    9.0530 c3      2408 PE       0.039600
  14448 C2         14.5630   -9.5550    8.1530 c3      2408 PE       0.039600
  14449 H11        13.3630  -10.5350    9.8030 hc      2409 PE      -0.019800
  14450 H12        13.0130   -8.7650    9.4930 hc      2409 PE      -0.019800
  14451 H21        12.1030  -10.9150    7.5330 hc      2409 PE      -0.019800
  14452 H22        12.1430   -9.2450    7.3130 hc      2409 PE      -0.019800
  14453 C1         13.2930   -9.7350    9.0530 c3      2409 PE       0.039600
  14454 C2         12.0530   -9.9850    8.1130 c3      2409 PE       0.039600
  14455 H11        10.9330  -10.4350    9.7830 hc      2410 PE      -0.019800
  14456 H12        10.7730   -8.7350    9.2830 hc      2410 PE      -0.019800
  14457 H21         9.6930  -11.3550    7.7830 hc      2410 PE      -0.019800
  14458 H22         9.4430   -9.6450    7.2530 hc      2410 PE      -0.019800
  14459 C1         10.7730   -9.7750    8.9230 c3      2410 PE       0.039600
  14460 C2          9.5430  -10.3150    8.1030 c3      2410 PE       0.039600
  14461 H11         8.4430  -10.9050    9.8530 hc      2411 PE      -0.019800
  14462 H12         8.1230   -9.2650    9.3930 hc      2411 PE      -0.019800
  14463 H21         7.2830  -11.8650    7.9930 hc      2411 PE      -0.019800
  14464 H22         7.0230  -10.2850    7.2730 hc      2411 PE      -0.019800
  14465 C1          8.2730  -10.2750    8.9730 c3      2411 PE       0.039600
  14466 C2          7.0930  -10.8150    8.2330 c3      2411 PE       0.039600
  14467 H11         5.9230  -11.4550    9.9130 hc      2412 PE      -0.019800
  14468 H12         5.8130   -9.7850    9.6330 hc      2412 PE      -0.019800
  14469 H21         4.6230  -12.0350    7.9230 hc      2412 PE      -0.019800
  14470 H22         4.2030  -10.3150    7.6030 hc      2412 PE      -0.019800
  14471 C1          5.8230  -10.7450    9.0830 c3      2412 PE       0.039600
  14472 C2          4.4630  -11.0450    8.3730 c3      2412 PE       0.039600
  14473 H11         3.5230  -11.9950   10.1330 hc      2413 PE      -0.019800
  14474 H12         3.2030  -10.2450    9.9330 hc      2413 PE      -0.019800
  14475 H21         1.7230  -10.9950    7.8230 hc      2413 PE      -0.019800
  14476 H22         0.9930  -11.1850    9.4330 hc      2413 PE      -0.019800
  14477 C1          3.2630  -11.2150    9.4130 c3      2413 PE       0.039600
  14478 C2          1.7930  -11.5350    8.7730 c3      2413 PE       0.039600
  14479 H11         0.9330  -13.1650    7.5930 hc      2414 PE      -0.019800
  14480 H12         2.6730  -13.1550    7.7730 hc      2414 PE      -0.019800
  14481 H21         0.3030  -13.8850    9.8030 hc      2414 PE      -0.019800
  14482 H22         1.9230  -13.7750   10.3030 hc      2414 PE      -0.019800
  14483 C1          1.7330  -13.0150    8.3230 c3      2414 PE       0.039600
  14484 C2          1.3230  -14.0150    9.4130 c3      2414 PE       0.039600
  14485 H11         1.5130  -16.0850    9.9230 hc      2415 PE      -0.019800
  14486 H12         0.8230  -15.8350    8.2530 hc      2415 PE      -0.019800
  14487 H21         3.0130  -15.4050    7.3030 hc      2415 PE      -0.019800
  14488 H22         3.1030  -16.8550    8.2330 hc      2415 PE      -0.019800
  14489 C1          1.5630  -15.5050    8.9930 c3      2415 PE       0.039600
  14490 C2          2.9730  -15.7750    8.3330 c3      2415 PE       0.039600
  14491 H11         3.9130  -14.2350    9.4430 hc      2416 PE      -0.019800
  14492 H12         4.2730  -15.7650   10.2130 hc      2416 PE      -0.019800
  14493 H21         5.2230  -14.8550    7.4530 hc      2416 PE      -0.019800
  14494 H22         5.4230  -16.4250    7.9530 hc      2416 PE      -0.019800
  14495 C1          4.1230  -15.2950    9.2330 c3      2416 PE       0.039600
  14496 C2          5.3530  -15.4150    8.3830 c3      2416 PE       0.039600
  14497 H11         6.4730  -13.9850    9.4930 hc      2417 PE      -0.019800
  14498 H12         6.8330  -15.6150   10.1230 hc      2417 PE      -0.019800
  14499 H21         7.7030  -14.7550    7.3730 hc      2417 PE      -0.019800
  14500 H22         8.0230  -16.3150    8.1730 hc      2417 PE      -0.019800
  14501 C1          6.6530  -15.0250    9.2130 c3      2417 PE       0.039600
  14502 C2          7.9330  -15.2350    8.3330 c3      2417 PE       0.039600
  14503 H11         8.9430  -13.5850    9.3330 hc      2418 PE      -0.019800
  14504 H12         9.3830  -15.0550    9.9030 hc      2418 PE      -0.019800
  14505 H21        10.1030  -14.0250    7.1530 hc      2418 PE      -0.019800
  14506 H22        10.5530  -15.6350    7.5630 hc      2418 PE      -0.019800
  14507 C1          9.1630  -14.5850    8.9330 c3      2418 PE       0.039600
  14508 C2         10.3430  -14.6550    8.0230 c3      2418 PE       0.039600
  14509 H11        11.4430  -13.3550    9.3330 hc      2419 PE      -0.019800
  14510 H12        11.7030  -15.1450    9.5130 hc      2419 PE      -0.019800
  14511 H21        12.7730  -13.4650    7.0430 hc      2419 PE      -0.019800
  14512 H22        13.1230  -15.1450    7.4330 hc      2419 PE      -0.019800
  14513 C1         11.6330  -14.3050    8.8130 c3      2419 PE       0.039600
  14514 C2         12.8630  -14.1750    7.8730 c3      2419 PE       0.039600
  14515 H11        13.8630  -12.8450    9.3030 hc      2420 PE      -0.019800
  14516 H12        14.1930  -14.6250    9.5630 hc      2420 PE      -0.019800
  14517 H21        15.2530  -12.6950    7.4630 hc      2420 PE      -0.019800
  14518 H22        15.5130  -14.5150    7.5030 hc      2420 PE      -0.019800
  14519 C1         14.0530  -13.8250    8.8330 c3      2420 PE       0.039600
  14520 C2         15.3530  -13.5950    8.0830 c3      2420 PE       0.039600
  14521 H11        16.2930  -12.3950    9.5130 hc      2421 PE      -0.019800
  14522 H12        16.6130  -14.1150    9.8430 hc      2421 PE      -0.019800
  14523 H21        17.6930  -12.7250    7.3130 hc      2421 PE      -0.019800
  14524 H22        18.1230  -14.3250    7.8530 hc      2421 PE      -0.019800
  14525 C1         16.5430  -13.3550    9.0530 c3      2421 PE       0.039600
  14526 C2         17.8730  -13.3250    8.2130 c3      2421 PE       0.039600
  14527 H11        18.7630  -11.7750    9.3830 hc      2422 PE      -0.019800
  14528 H12        19.3730  -13.3950    9.7630 hc      2422 PE      -0.019800
  14529 H21        20.1930  -12.0450    7.1230 hc      2422 PE      -0.019800
  14530 H22        20.4630  -13.5850    7.4030 hc      2422 PE      -0.019800
  14531 C1         19.0630  -12.7350    8.9530 c3      2422 PE       0.039600
  14532 C2         20.3330  -12.6750    8.0030 c3      2422 PE       0.039600
  14533 H11        21.5330  -11.4250    9.4130 hc      2423 PE      -0.019800
  14534 H12        21.9330  -13.0050    9.5230 hc      2423 PE      -0.019800
  14535 H21        22.6130  -11.5050    6.9330 hc      2423 PE      -0.019800
  14536 H22        23.2630  -13.0250    7.4230 hc      2423 PE      -0.019800
  14537 C1         21.6830  -12.2850    8.7430 c3      2423 PE       0.039600
  14538 C2         22.9430  -12.0550    7.8230 c3      2423 PE       0.039600
  14539 H11        23.9530  -10.2950    8.6630 hc      2424 PE      -0.019800
  14540 H12        24.2430  -11.7250    9.6130 hc      2424 PE      -0.019800
  14541 H21        25.3430  -11.2550    6.7730 hc      2424 PE      -0.019800
  14542 H22        25.8030  -12.5950    7.7630 hc      2424 PE      -0.019800
  14543 C1         24.1630  -11.3750    8.5730 c3      2424 PE       0.039600
  14544 C2         25.5130  -11.5350    7.8230 c3      2424 PE       0.039600
  14545 H11        26.4130   -9.8650    8.8630 hc      2425 PE      -0.019800
  14546 H12        26.7830  -11.4550    9.3930 hc      2425 PE      -0.019800
  14547 H21        27.9630  -10.2950    6.9330 hc      2425 PE      -0.019800
  14548 H22        28.2730  -11.9550    7.4330 hc      2425 PE      -0.019800
  14549 C1         26.6830  -10.8550    8.4830 c3      2425 PE       0.039600
  14550 C2         28.0430  -10.9450    7.8030 c3      2425 PE       0.039600
  14551 H11        28.6530   -9.5750    9.1830 hc      2426 PE      -0.019800
  14552 H12        29.1830  -11.1350    9.6630 hc      2426 PE      -0.019800
  14553 H21        30.5030   -9.9750    7.1030 hc      2426 PE      -0.019800
  14554 H22        31.0530  -11.2150    8.1330 hc      2426 PE      -0.019800
  14555 C1         29.0830  -10.4950    8.7730 c3      2426 PE       0.039600
  14556 C2         30.5130  -10.2650    8.1630 c3      2426 PE       0.039600
  14557 H11        30.8130   -8.4650    9.2830 hc      2427 PE      -0.019800
  14558 H12        31.6730   -9.8350    9.9130 hc      2427 PE      -0.019800
  14559 H21        32.3330   -8.6750    7.1730 hc      2427 PE      -0.019800
  14560 H22        33.1530  -10.0250    8.0030 hc      2427 PE      -0.019800
  14561 C1         31.3730   -9.3550    8.9730 c3      2427 PE       0.039600
  14562 C2         32.7030   -9.0250    8.1430 c3      2427 PE       0.039600
  14563 H11        32.9430   -7.4950    9.6130 hc      2428 PE      -0.019800
  14564 H12        34.2530   -8.6850    9.6830 hc      2428 PE      -0.019800
  14565 H21        33.9030   -6.3850    7.7230 hc      2428 PE      -0.019800
  14566 H22        35.0730   -7.7050    7.4430 hc      2428 PE      -0.019800
  14567 C1         33.6230   -8.0950    9.0030 c3      2428 PE       0.039600
  14568 C2         34.5330   -7.1350    8.2130 c3      2428 PE       0.039600
  14569 H11        34.9630   -5.9750    9.9830 hc      2429 PE      -0.019800
  14570 H12        36.1930   -7.1250    9.5530 hc      2429 PE      -0.019800
  14571 H21        35.4430   -4.6950    7.8230 hc      2429 PE      -0.019800
  14572 H22        37.0330   -5.4850    7.6830 hc      2429 PE      -0.019800
  14573 C1         35.5030   -6.3950    9.1230 c3      2429 PE       0.039600
  14574 C2         36.2530   -5.1650    8.3830 c3      2429 PE       0.039600
  14575 H11        36.1230   -3.4950    9.9130 hc      2430 PE      -0.019800
  14576 H12        37.4330   -4.7250   10.0730 hc      2430 PE      -0.019800
  14577 H21        38.3030   -3.7950    7.8130 hc      2430 PE      -0.019800
  14578 H22        38.6530   -2.8750    9.2930 hc      2430 PE      -0.019800
  14579 C1         36.8330   -4.1250    9.3730 c3      2430 PE       0.039600
  14580 C2         37.8530   -3.2350    8.6430 c3      2430 PE       0.039600
  14581 H11        13.6330   17.0850    4.5830 hc      2431 PE      -0.019800
  14582 H12        12.1230   16.1350    5.0030 hc      2431 PE      -0.019800
  14583 H21        13.5730   15.8750    7.2830 hc      2431 PE      -0.019800
  14584 H22        12.2830   17.1050    6.9930 hc      2431 PE      -0.019800
  14585 C1         13.1930   16.2850    5.1930 c3      2431 PE       0.039600
  14586 C2         13.2630   16.7350    6.6730 c3      2431 PE       0.039600
  14587 H11        15.3330   17.3650    6.6230 hc      2432 PE      -0.019800
  14588 H12        14.2230   18.7250    6.4030 hc      2432 PE      -0.019800
  14589 H21        14.6230   17.1550    9.1230 hc      2432 PE      -0.019800
  14590 H22        13.5030   18.4750    8.6830 hc      2432 PE      -0.019800
  14591 C1         14.3930   17.8050    6.9730 c3      2432 PE       0.039600
  14592 C2         14.5030   18.0650    8.5130 c3      2432 PE       0.039600
  14593 H11        15.8330   19.0250    9.8630 hc      2433 PE      -0.019800
  14594 H12        16.5430   18.9450    8.2830 hc      2433 PE      -0.019800
  14595 H21        14.2430   20.7050    9.0430 hc      2433 PE      -0.019800
  14596 H22        14.8030   20.5150    7.3930 hc      2433 PE      -0.019800
  14597 C1         15.5830   19.0950    8.8030 c3      2433 PE       0.039600
  14598 C2         15.1330   20.4650    8.4430 c3      2433 PE       0.039600
  14599 H11        16.4130   21.6650    9.7730 hc      2434 PE      -0.019800
  14600 H12        17.2030   21.3050    8.2930 hc      2434 PE      -0.019800
  14601 H21        14.7730   23.0850    7.9930 hc      2434 PE      -0.019800
  14602 H22        16.1730   23.0350    7.0130 hc      2434 PE      -0.019800
  14603 C1         16.2330   21.6150    8.6930 c3      2434 PE       0.039600
  14604 C2         15.8630   22.9950    8.0630 c3      2434 PE       0.039600
  14605 H11        15.9530   24.1750    9.9330 hc      2435 PE      -0.019800
  14606 H12        17.4830   24.0250    9.1930 hc      2435 PE      -0.019800
  14607 H21        15.1330   25.7350    8.1930 hc      2435 PE      -0.019800
  14608 H22        16.6130   25.5050    7.2830 hc      2435 PE      -0.019800
  14609 C1         16.4230   24.1850    8.9430 c3      2435 PE       0.039600
  14610 C2         16.2130   25.5350    8.3030 c3      2435 PE       0.039600
  14611 H11        16.2830   26.7650   10.0530 hc      2436 PE      -0.019800
  14612 H12        17.8130   26.2950    9.4930 hc      2436 PE      -0.019800
  14613 H21        17.9630   27.8950    7.6730 hc      2436 PE      -0.019800
  14614 H22        17.4430   28.7250    9.0330 hc      2436 PE      -0.019800
  14615 C1         16.8430   26.6350    9.1130 c3      2436 PE       0.039600
  14616 C2         17.0930   27.9550    8.3330 c3      2436 PE       0.039600
  14617 H11        16.2630   29.5150    7.1430 hc      2437 PE      -0.019800
  14618 H12        15.5230   28.0050    6.7030 hc      2437 PE      -0.019800
  14619 H21        15.2130   29.7050    9.3130 hc      2437 PE      -0.019800
  14620 H22        14.3830   28.2150    9.1630 hc      2437 PE      -0.019800
  14621 C1         15.8430   28.5950    7.5730 c3      2437 PE       0.039600
  14622 C2         14.7030   29.0750    8.5630 c3      2437 PE       0.039600
  14623 H11        13.8830   30.5550    7.2930 hc      2438 PE      -0.019800
  14624 H12        13.1630   28.9550    7.0830 hc      2438 PE      -0.019800
  14625 H21        12.4030   31.2350    9.0230 hc      2438 PE      -0.019800
  14626 H22        12.3430   29.5150    9.5630 hc      2438 PE      -0.019800
  14627 C1         13.5130   29.6750    7.8330 c3      2438 PE       0.039600
  14628 C2         12.3730   30.1850    8.6930 c3      2438 PE       0.039600
  14629 H11        10.8630   30.7350    7.0230 hc      2439 PE      -0.019800
  14630 H12        10.9430   29.0650    7.4730 hc      2439 PE      -0.019800
  14631 H21         9.8130   31.0050    9.4130 hc      2439 PE      -0.019800
  14632 H22         9.8530   29.2350    9.4330 hc      2439 PE      -0.019800
  14633 C1         10.9930   30.0850    7.8930 c3      2439 PE       0.039600
  14634 C2          9.8030   30.1150    8.7730 c3      2439 PE       0.039600
  14635 H11         8.4030   31.0250    7.4630 hc      2440 PE      -0.019800
  14636 H12         8.5030   29.4050    7.2130 hc      2440 PE      -0.019800
  14637 H21         7.0730   30.7950    9.6030 hc      2440 PE      -0.019800
  14638 H22         7.5130   29.0950    9.6230 hc      2440 PE      -0.019800
  14639 C1          8.4730   30.1050    8.0530 c3      2440 PE       0.039600
  14640 C2          7.2430   29.9250    8.9630 c3      2440 PE       0.039600
  14641 H11         5.9830   30.2450    7.2430 hc      2441 PE      -0.019800
  14642 H12         6.0530   28.6250    7.7130 hc      2441 PE      -0.019800
  14643 H21         4.7230   30.8650    9.3030 hc      2441 PE      -0.019800
  14644 H22         4.7130   29.2850    9.9130 hc      2441 PE      -0.019800
  14645 C1          5.9830   29.6250    8.1430 c3      2441 PE       0.039600
  14646 C2          4.7030   29.8250    8.9530 c3      2441 PE       0.039600
  14647 H11         3.4030   30.2350    7.3330 hc      2442 PE      -0.019800
  14648 H12         3.4930   28.6050    7.6730 hc      2442 PE      -0.019800
  14649 H21         2.1730   30.6650    9.5230 hc      2442 PE      -0.019800
  14650 H22         2.2630   28.9750    9.9130 hc      2442 PE      -0.019800
  14651 C1          3.4630   29.5650    8.2030 c3      2442 PE       0.039600
  14652 C2          2.2030   29.6750    9.0630 c3      2442 PE       0.039600
  14653 H11         0.8430   30.0450    7.3630 hc      2443 PE      -0.019800
  14654 H12         1.1030   28.3850    7.7030 hc      2443 PE      -0.019800
  14655 H21        -0.6870   30.2350    9.3030 hc      2443 PE      -0.019800
  14656 H22        -0.2570   28.5650    9.8230 hc      2443 PE      -0.019800
  14657 C1          0.9330   29.3450    8.2030 c3      2443 PE       0.039600
  14658 C2         -0.3970   29.2350    8.9630 c3      2443 PE       0.039600
  14659 H11        -1.6870   29.4150    7.2230 hc      2444 PE      -0.019800
  14660 H12        -1.2170   27.7450    7.5430 hc      2444 PE      -0.019800
  14661 H21        -3.0770   29.2250    9.4630 hc      2444 PE      -0.019800
  14662 H22        -2.6470   27.5250    9.4330 hc      2444 PE      -0.019800
  14663 C1         -1.5070   28.6850    8.0230 c3      2444 PE       0.039600
  14664 C2         -2.8170   28.3950    8.7930 c3      2444 PE       0.039600
  14665 H11        -4.2570   28.9250    7.2730 hc      2445 PE      -0.019800
  14666 H12        -3.7670   27.2350    7.1530 hc      2445 PE      -0.019800
  14667 H21        -5.2070   28.4550    9.5430 hc      2445 PE      -0.019800
  14668 H22        -4.9970   26.7250    9.2730 hc      2445 PE      -0.019800
  14669 C1         -3.9570   28.0450    7.8630 c3      2445 PE       0.039600
  14670 C2         -5.1270   27.6850    8.7630 c3      2445 PE       0.039600
  14671 H11        -6.4970   28.3550    7.1930 hc      2446 PE      -0.019800
  14672 H12        -6.3970   26.6750    7.2830 hc      2446 PE      -0.019800
  14673 H21        -7.8770   28.4250    9.3130 hc      2446 PE      -0.019800
  14674 H22        -7.6670   26.5950    9.4430 hc      2446 PE      -0.019800
  14675 C1         -6.4170   27.5550    7.9330 c3      2446 PE       0.039600
  14676 C2         -7.7270   27.4750    8.7830 c3      2446 PE       0.039600
  14677 H11        -9.1270   27.9850    7.2330 hc      2447 PE      -0.019800
  14678 H12        -8.8270   26.3250    7.2330 hc      2447 PE      -0.019800
  14679 H21       -10.3170   27.9650    9.2830 hc      2447 PE      -0.019800
  14680 H22       -10.1470   26.1550    9.4730 hc      2447 PE      -0.019800
  14681 C1         -8.9270   27.1650    7.9330 c3      2447 PE       0.039600
  14682 C2        -10.1670   27.0050    8.7730 c3      2447 PE       0.039600
  14683 H11       -11.5070   27.6050    7.2330 hc      2448 PE      -0.019800
  14684 H12       -11.5470   25.8850    7.4330 hc      2448 PE      -0.019800
  14685 H21       -12.8670   27.6450    9.5030 hc      2448 PE      -0.019800
  14686 H22       -12.5270   26.0050    9.5430 hc      2448 PE      -0.019800
  14687 C1        -11.4370   26.8150    7.9930 c3      2448 PE       0.039600
  14688 C2        -12.6870   26.8150    8.8230 c3      2448 PE       0.039600
  14689 H11       -14.1370   27.0550    7.1730 hc      2449 PE      -0.019800
  14690 H12       -14.0070   25.3950    7.8130 hc      2449 PE      -0.019800
  14691 H21       -15.4170   27.6950    9.3430 hc      2449 PE      -0.019800
  14692 H22       -15.2970   25.9650    9.8230 hc      2449 PE      -0.019800
  14693 C1        -14.0570   26.4550    8.0930 c3      2449 PE       0.039600
  14694 C2        -15.3470   26.6650    8.9830 c3      2449 PE       0.039600
  14695 H11       -16.6870   27.0650    7.3130 hc      2450 PE      -0.019800
  14696 H12       -16.5170   25.3950    7.6530 hc      2450 PE      -0.019800
  14697 H21       -18.0370   27.3350    9.3830 hc      2450 PE      -0.019800
  14698 H22       -17.9370   25.5850    9.5730 hc      2450 PE      -0.019800
  14699 C1        -16.5870   26.3650    8.1630 c3      2450 PE       0.039600
  14700 C2        -17.9270   26.3950    8.8230 c3      2450 PE       0.039600
  14701 H11       -19.3970   26.7950    7.1130 hc      2451 PE      -0.019800
  14702 H12       -18.9370   25.1250    7.2430 hc      2451 PE      -0.019800
  14703 H21       -20.6870   26.6550    9.1330 hc      2451 PE      -0.019800
  14704 H22       -20.3470   24.8950    9.2030 hc      2451 PE      -0.019800
  14705 C1        -19.1370   26.0150    7.8330 c3      2451 PE       0.039600
  14706 C2        -20.5070   25.7550    8.5430 c3      2451 PE       0.039600
  14707 H11       -21.8670   26.3050    6.9430 hc      2452 PE      -0.019800
  14708 H12       -21.5970   24.5650    7.0730 hc      2452 PE      -0.019800
  14709 H21       -23.2270   26.1650    9.1230 hc      2452 PE      -0.019800
  14710 H22       -22.9470   24.4250    9.1730 hc      2452 PE      -0.019800
  14711 C1        -21.7370   25.4850    7.6530 c3      2452 PE       0.039600
  14712 C2        -23.0770   25.2750    8.4930 c3      2452 PE       0.039600
  14713 H11       -24.5970   25.7750    6.9730 hc      2453 PE      -0.019800
  14714 H12       -24.0670   24.0850    7.0630 hc      2453 PE      -0.019800
  14715 H21       -25.8970   25.5550    9.1930 hc      2453 PE      -0.019800
  14716 H22       -25.2370   23.9250    9.2630 hc      2453 PE      -0.019800
  14717 C1        -24.3270   24.9650    7.6630 c3      2453 PE       0.039600
  14718 C2        -25.5870   24.7050    8.5730 c3      2453 PE       0.039600
  14719 H11       -26.9270   25.0750    7.0030 hc      2454 PE      -0.019800
  14720 H12       -26.4570   23.4050    7.1430 hc      2454 PE      -0.019800
  14721 H21       -28.3170   24.8550    9.1530 hc      2454 PE      -0.019800
  14722 H22       -27.6070   23.2950    9.5830 hc      2454 PE      -0.019800
  14723 C1        -26.7570   24.2850    7.7330 c3      2454 PE       0.039600
  14724 C2        -27.9270   23.9150    8.7330 c3      2454 PE       0.039600
  14725 H11       -29.3570   23.7750    7.1030 hc      2455 PE      -0.019800
  14726 H12       -28.6770   22.1750    7.7230 hc      2455 PE      -0.019800
  14727 H21       -30.6270   23.9850    9.1730 hc      2455 PE      -0.019800
  14728 H22       -29.9470   22.3850    9.7430 hc      2455 PE      -0.019800
  14729 C1        -29.0270   23.1850    7.9630 c3      2455 PE       0.039600
  14730 C2        -30.2770   22.9850    8.8830 c3      2455 PE       0.039600
  14731 H11       -31.7170   23.2750    7.5130 hc      2456 PE      -0.019800
  14732 H12       -31.1870   21.5950    7.6430 hc      2456 PE      -0.019800
  14733 H21       -33.2770   23.1550    9.2330 hc      2456 PE      -0.019800
  14734 H22       -32.4170   21.9150   10.1230 hc      2456 PE      -0.019800
  14735 C1        -31.5170   22.4650    8.2230 c3      2456 PE       0.039600
  14736 C2        -32.7370   22.2050    9.1130 c3      2456 PE       0.039600
  14737 H11       -33.9370   21.3750    7.4430 hc      2457 PE      -0.019800
  14738 H12       -32.9570   20.2150    8.4030 hc      2457 PE      -0.019800
  14739 H21       -35.2970   21.9550    9.5230 hc      2457 PE      -0.019800
  14740 H22       -34.6870   20.5250   10.2830 hc      2457 PE      -0.019800
  14741 C1        -33.5870   21.1050    8.4430 c3      2457 PE       0.039600
  14742 C2        -34.8670   20.9750    9.3030 c3      2457 PE       0.039600
  14743 H11       -36.9970   20.2350    9.0230 hc      2458 PE      -0.019800
  14744 H12       -36.0670   20.3550    7.5430 hc      2458 PE      -0.019800
  14745 H21       -35.5270   18.3850    9.7830 hc      2458 PE      -0.019800
  14746 H22       -34.5070   18.6250    8.2930 hc      2458 PE      -0.019800
  14747 C1        -35.9970   20.1050    8.6030 c3      2458 PE       0.039600
  14748 C2        -35.5070   18.6850    8.7230 c3      2458 PE       0.039600
  14749 H11       -36.7470   18.1350    7.0230 hc      2459 PE      -0.019800
  14750 H12       -35.9670   16.7850    7.8130 hc      2459 PE      -0.019800
  14751 H21       -38.2870   18.4350    8.8930 hc      2459 PE      -0.019800
  14752 H22       -37.5670   16.9750    9.6130 hc      2459 PE      -0.019800
  14753 C1        -36.4270   17.7650    8.0130 c3      2459 PE       0.039600
  14754 C2        -37.7470   17.5050    8.6730 c3      2459 PE       0.039600
  14755 H11       -39.7770   16.6650    8.2630 hc      2460 PE      -0.019800
  14756 H12       -38.8370   16.9750    6.8030 hc      2460 PE      -0.019800
  14757 H21       -38.2970   14.6650    8.7730 hc      2460 PE      -0.019800
  14758 H22       -39.1770   14.5550    7.2230 hc      2460 PE      -0.019800
  14759 C1        -38.7570   16.6350    7.8430 c3      2460 PE       0.039600
  14760 C2        -38.3770   15.0850    7.7630 c3      2460 PE       0.039600
  14761 H11        -2.2470    0.0150    7.9730 hc      2461 PE      -0.019800
  14762 H12        -2.9470   -1.2950    9.0130 hc      2461 PE      -0.019800
  14763 H21        -3.6670    1.6150    9.9030 hc      2461 PE      -0.019800
  14764 H22        -4.6470    0.2650    9.9330 hc      2461 PE      -0.019800
  14765 C1         -2.7170   -0.2150    8.9430 c3      2461 PE       0.039600
  14766 C2         -3.9070    0.7450    9.2730 c3      2461 PE       0.039600
  14767 H11        -4.1070    2.0350    7.5230 hc      2462 PE      -0.019800
  14768 H12        -4.6170    0.3650    7.1630 hc      2462 PE      -0.019800
  14769 H21        -6.1170    2.4750    8.7930 hc      2462 PE      -0.019800
  14770 H22        -6.5870    0.7750    8.6830 hc      2462 PE      -0.019800
  14771 C1         -4.6470    1.1650    7.9130 c3      2462 PE       0.039600
  14772 C2         -6.1270    1.5950    8.1330 c3      2462 PE       0.039600
  14773 H11        -6.3770    2.6350    6.2130 hc      2463 PE      -0.019800
  14774 H12        -6.8470    0.9650    6.0630 hc      2463 PE      -0.019800
  14775 H21        -8.4970    2.9650    7.6230 hc      2463 PE      -0.019800
  14776 H22        -8.7370    1.1950    7.5330 hc      2463 PE      -0.019800
  14777 C1         -6.8970    1.8250    6.7430 c3      2463 PE       0.039600
  14778 C2         -8.3870    2.0850    6.9930 c3      2463 PE       0.039600
  14779 H11        -8.7670    3.1850    5.1530 hc      2464 PE      -0.019800
  14780 H12        -8.7570    1.4750    4.9630 hc      2464 PE      -0.019800
  14781 H21       -11.0770    2.9050    6.4130 hc      2464 PE      -0.019800
  14782 H22       -10.9070    1.1050    5.9430 hc      2464 PE      -0.019800
  14783 C1         -9.1270    2.2650    5.6230 c3      2464 PE       0.039600
  14784 C2        -10.6370    2.1450    5.7430 c3      2464 PE       0.039600
  14785 H11       -10.6070    2.0050    3.5830 hc      2465 PE      -0.019800
  14786 H12       -12.1570    1.7750    4.2730 hc      2465 PE      -0.019800
  14787 H21       -10.7470    4.5150    4.2030 hc      2465 PE      -0.019800
  14788 H22       -12.3070    4.1850    4.9430 hc      2465 PE      -0.019800
  14789 C1        -11.2570    2.4050    4.3630 c3      2465 PE       0.039600
  14790 C2        -11.6470    3.8950    4.1130 c3      2465 PE       0.039600
  14791 H11       -13.0570    3.3850    2.6530 hc      2466 PE      -0.019800
  14792 H12       -12.6970    5.1350    2.6230 hc      2466 PE      -0.019800
  14793 H21       -10.6470    2.9250    1.7330 hc      2466 PE      -0.019800
  14794 H22       -10.3670    4.6250    1.4730 hc      2466 PE      -0.019800
  14795 C1        -12.2670    4.1350    2.7330 c3      2466 PE       0.039600
  14796 C2        -11.1670    3.8750    1.5630 c3      2466 PE       0.039600
  14797 H11       -12.1570    4.9050    0.0330 hc      2467 PE      -0.019800
  14798 H12       -10.9370    3.7950   -0.4870 hc      2467 PE      -0.019800
  14799 H21       -13.2070    3.0350   -1.1470 hc      2467 PE      -0.019800
  14800 H22       -13.7270    2.9450    0.5230 hc      2467 PE      -0.019800
  14801 C1        -11.8170    3.8650    0.1730 c3      2467 PE       0.039600
  14802 C2        -12.8770    2.7450   -0.1370 c3      2467 PE       0.039600
  14803 H11       -11.9870    1.1950   -1.1970 hc      2468 PE      -0.019800
  14804 H12       -11.5470    1.0350    0.5330 hc      2468 PE      -0.019800
  14805 H21       -14.1070    0.3650   -0.7570 hc      2468 PE      -0.019800
  14806 H22       -13.8670    0.5850    1.0130 hc      2468 PE      -0.019800
  14807 C1        -12.3670    1.2450   -0.1670 c3      2468 PE       0.039600
  14808 C2        -13.4170    0.2150    0.0830 c3      2468 PE       0.039600
  14809 H11       -12.2670   -1.4750   -0.8070 hc      2469 PE      -0.019800
  14810 H12       -11.9670   -1.3450    0.8630 hc      2469 PE      -0.019800
  14811 H21       -14.4570   -2.3550   -0.4470 hc      2469 PE      -0.019800
  14812 H22       -14.1770   -2.2750    1.3230 hc      2469 PE      -0.019800
  14813 C1        -12.7770   -1.2350    0.1330 c3      2469 PE       0.039600
  14814 C2        -13.6970   -2.4250    0.3430 c3      2469 PE       0.039600
  14815 H11       -12.4970   -3.8350   -0.6470 hc      2470 PE      -0.019800
  14816 H12       -12.3170   -3.8950    1.1030 hc      2470 PE      -0.019800
  14817 H21       -14.9070   -4.8350   -0.2070 hc      2470 PE      -0.019800
  14818 H22       -14.4570   -5.0250    1.3630 hc      2470 PE      -0.019800
  14819 C1        -13.0570   -3.8050    0.2930 c3      2470 PE       0.039600
  14820 C2        -13.9870   -4.9650    0.3730 c3      2470 PE       0.039600
  14821 H11       -12.6270   -6.3650   -0.6770 hc      2471 PE      -0.019800
  14822 H12       -12.6170   -6.5550    1.0930 hc      2471 PE      -0.019800
  14823 H21       -14.8170   -7.4250   -0.7270 hc      2471 PE      -0.019800
  14824 H22       -14.8970   -7.3650    1.0830 hc      2471 PE      -0.019800
  14825 C1        -13.2570   -6.3550    0.2230 c3      2471 PE       0.039600
  14826 C2        -14.2570   -7.5050    0.2130 c3      2471 PE       0.039600
  14827 H11       -12.8670   -9.0150   -0.6770 hc      2472 PE      -0.019800
  14828 H12       -12.7670   -8.9250    1.0830 hc      2472 PE      -0.019800
  14829 H21       -15.1370   -9.8050   -0.6570 hc      2472 PE      -0.019800
  14830 H22       -15.0670   -9.9550    1.1330 hc      2472 PE      -0.019800
  14831 C1        -13.4670   -8.9150    0.2430 c3      2472 PE       0.039600
  14832 C2        -14.4970  -10.0350    0.2030 c3      2472 PE       0.039600
  14833 H11       -13.2770  -11.3650   -0.8270 hc      2473 PE      -0.019800
  14834 H12       -13.3070  -11.6250    0.9630 hc      2473 PE      -0.019800
  14835 H21       -15.4070  -12.5450   -1.2070 hc      2473 PE      -0.019800
  14836 H22       -15.8470  -12.3250    0.4930 hc      2473 PE      -0.019800
  14837 C1        -13.9170  -11.4550    0.0630 c3      2473 PE       0.039600
  14838 C2        -15.0170  -12.5450   -0.1770 c3      2473 PE       0.039600
  14839 H11       -13.9670  -13.7450    1.2030 hc      2474 PE      -0.019800
  14840 H12       -15.1370  -14.6850    0.0830 hc      2474 PE      -0.019800
  14841 H21       -12.9470  -15.3350   -0.3270 hc      2474 PE      -0.019800
  14842 H22       -12.2170  -13.6850   -0.3570 hc      2474 PE      -0.019800
  14843 C1        -14.4170  -13.8750    0.2130 c3      2474 PE       0.039600
  14844 C2        -13.1270  -14.2750   -0.5370 c3      2474 PE       0.039600
  14845 H11       -14.1070  -15.0450   -2.3370 hc      2475 PE      -0.019800
  14846 H12       -13.7570  -13.2950   -2.4170 hc      2475 PE      -0.019800
  14847 H21       -11.7770  -15.5550   -2.6570 hc      2475 PE      -0.019800
  14848 H22       -11.3970  -13.8250   -2.7470 hc      2475 PE      -0.019800
  14849 C1        -13.3670  -14.2650   -2.0770 c3      2475 PE       0.039600
  14850 C2        -12.1570  -14.5850   -2.9670 c3      2475 PE       0.039600
  14851 H11       -13.4070  -15.0550   -4.6770 hc      2476 PE      -0.019800
  14852 H12       -12.7070  -13.3950   -4.6270 hc      2476 PE      -0.019800
  14853 H21       -11.4370  -15.9350   -5.5570 hc      2476 PE      -0.019800
  14854 H22       -10.4470  -14.6850   -4.9670 hc      2476 PE      -0.019800
  14855 C1        -12.5270  -14.4550   -4.4270 c3      2476 PE       0.039600
  14856 C2        -11.4070  -14.8450   -5.4570 c3      2476 PE       0.039600
  14857 H11       -12.2970  -14.5550   -7.3670 hc      2477 PE      -0.019800
  14858 H12       -11.3370  -13.1750   -6.8270 hc      2477 PE      -0.019800
  14859 H21       -10.3170  -14.3350   -8.7370 hc      2477 PE      -0.019800
  14860 H22       -10.2770  -15.9150   -7.8970 hc      2477 PE      -0.019800
  14861 C1        -11.3470  -14.2650   -6.8970 c3      2477 PE       0.039600
  14862 C2        -10.2170  -14.8250   -7.7570 c3      2477 PE       0.039600
  14863 H11        -8.8770  -13.4750   -6.9670 hc      2478 PE      -0.019800
  14864 H12        -8.7070  -15.1750   -6.2670 hc      2478 PE      -0.019800
  14865 H21        -7.7370  -13.8750   -8.8770 hc      2478 PE      -0.019800
  14866 H22        -7.7370  -15.6450   -8.6670 hc      2478 PE      -0.019800
  14867 C1         -8.8370  -14.5550   -7.1670 c3      2478 PE       0.039600
  14868 C2         -7.6770  -14.6850   -8.1470 c3      2478 PE       0.039600
  14869 H11        -6.2270  -13.4650   -7.0470 hc      2479 PE      -0.019800
  14870 H12        -6.3470  -15.0950   -6.5570 hc      2479 PE      -0.019800
  14871 H21        -4.9870  -14.4250   -9.2870 hc      2479 PE      -0.019800
  14872 H22        -5.0870  -15.9750   -8.4370 hc      2479 PE      -0.019800
  14873 C1         -6.3070  -14.4850   -7.4670 c3      2479 PE       0.039600
  14874 C2         -5.0670  -14.8850   -8.2970 c3      2479 PE       0.039600
  14875 H11        -3.7870  -13.5650   -7.0470 hc      2480 PE      -0.019800
  14876 H12        -3.7470  -15.3750   -6.7270 hc      2480 PE      -0.019800
  14877 H21        -2.5070  -14.0950   -9.2170 hc      2480 PE      -0.019800
  14878 H22        -2.3570  -15.7050   -8.7770 hc      2480 PE      -0.019800
  14879 C1         -3.7670  -14.5750   -7.4770 c3      2480 PE       0.039600
  14880 C2         -2.4870  -14.7150   -8.3170 c3      2480 PE       0.039600
  14881 H11        -1.4870  -13.2050   -7.1170 hc      2481 PE      -0.019800
  14882 H12        -1.1570  -14.8750   -6.6370 hc      2481 PE      -0.019800
  14883 H21        -0.0870  -14.0250   -9.3470 hc      2481 PE      -0.019800
  14884 H22         0.3130  -15.3650   -8.4770 hc      2481 PE      -0.019800
  14885 C1         -1.2770  -14.2050   -7.5070 c3      2481 PE       0.039600
  14886 C2          0.0130  -14.3250   -8.2970 c3      2481 PE       0.039600
  14887 H11         1.0530  -12.6350   -7.4170 hc      2482 PE      -0.019800
  14888 H12         1.2630  -14.1450   -6.5870 hc      2482 PE      -0.019800
  14889 H21         2.4630  -13.5650   -9.3070 hc      2482 PE      -0.019800
  14890 H22         2.8330  -15.0150   -8.2570 hc      2482 PE      -0.019800
  14891 C1          1.2130  -13.7050   -7.5870 c3      2482 PE       0.039600
  14892 C2          2.5530  -13.9550   -8.2870 c3      2482 PE       0.039600
  14893 H11         3.4430  -12.1450   -7.3470 hc      2483 PE      -0.019800
  14894 H12         4.0930  -13.6650   -6.7670 hc      2483 PE      -0.019800
  14895 H21         4.8530  -12.5050   -9.4870 hc      2483 PE      -0.019800
  14896 H22         4.9830  -14.1050   -9.0070 hc      2483 PE      -0.019800
  14897 C1          3.7430  -13.1550   -7.6670 c3      2483 PE       0.039600
  14898 C2          4.9530  -13.0950   -8.5770 c3      2483 PE       0.039600
  14899 H11         6.1430  -11.6050   -7.6170 hc      2484 PE      -0.019800
  14900 H12         6.4330  -13.3250   -6.9970 hc      2484 PE      -0.019800
  14901 H21         7.5530  -12.0750   -9.5170 hc      2484 PE      -0.019800
  14902 H22         7.5430  -13.8350   -9.1270 hc      2484 PE      -0.019800
  14903 C1          6.2830  -12.6650   -7.8670 c3      2484 PE       0.039600
  14904 C2          7.5330  -12.8250   -8.7170 c3      2484 PE       0.039600
  14905 H11         8.6630  -11.8350   -7.1670 hc      2485 PE      -0.019800
  14906 H12         8.9430  -13.5350   -7.2670 hc      2485 PE      -0.019800
  14907 H21         9.9530  -11.9050   -9.5570 hc      2485 PE      -0.019800
  14908 H22        10.2630  -13.5150   -9.1970 hc      2485 PE      -0.019800
  14909 C1          8.7730  -12.6550   -7.8970 c3      2485 PE       0.039600
  14910 C2         10.0230  -12.5750   -8.6970 c3      2485 PE       0.039600
  14911 H11        10.9730  -11.1450   -7.3670 hc      2486 PE      -0.019800
  14912 H12        11.2830  -12.8150   -7.0170 hc      2486 PE      -0.019800
  14913 H21        12.6130  -11.2050   -9.2370 hc      2486 PE      -0.019800
  14914 H22        12.7530  -13.0250   -8.9670 hc      2486 PE      -0.019800
  14915 C1         11.1930  -12.1050   -7.8570 c3      2486 PE       0.039600
  14916 C2         12.5630  -12.0350   -8.5270 c3      2486 PE       0.039600
  14917 H11        13.7930  -10.7350   -7.2170 hc      2487 PE      -0.019800
  14918 H12        13.6930  -12.4350   -6.7070 hc      2487 PE      -0.019800
  14919 H21        15.1930  -11.4250   -9.2270 hc      2487 PE      -0.019800
  14920 H22        15.3030  -12.9750   -8.5970 hc      2487 PE      -0.019800
  14921 C1         13.7830  -11.7750   -7.5770 c3      2487 PE       0.039600
  14922 C2         15.1630  -11.9350   -8.2570 c3      2487 PE       0.039600
  14923 H11        16.1130  -10.2850   -7.0570 hc      2488 PE      -0.019800
  14924 H12        16.5630  -11.9550   -6.5670 hc      2488 PE      -0.019800
  14925 H21        17.5130  -10.3450   -9.0670 hc      2488 PE      -0.019800
  14926 H22        17.6830  -12.0550   -8.9470 hc      2488 PE      -0.019800
  14927 C1         16.3230  -11.3050   -7.4170 c3      2488 PE       0.039600
  14928 C2         17.6330  -11.1550   -8.3370 c3      2488 PE       0.039600
  14929 H11        18.7530  -10.1150   -6.7770 hc      2489 PE      -0.019800
  14930 H12        19.1630  -11.8450   -6.8770 hc      2489 PE      -0.019800
  14931 H21        20.1630   -9.8250   -8.7270 hc      2489 PE      -0.019800
  14932 H22        20.2730  -11.5350   -9.1170 hc      2489 PE      -0.019800
  14933 C1         18.9030  -10.9550   -7.4570 c3      2489 PE       0.039600
  14934 C2         20.2330  -10.8250   -8.2870 c3      2489 PE       0.039600
  14935 H11        21.4130  -10.0050   -6.7170 hc      2490 PE      -0.019800
  14936 H12        21.6630  -11.7550   -6.9570 hc      2490 PE      -0.019800
  14937 H21        22.9330   -9.3450   -8.4470 hc      2490 PE      -0.019800
  14938 H22        23.6730  -10.6750   -7.5970 hc      2490 PE      -0.019800
  14939 C1         21.5230  -10.7950   -7.4770 c3      2490 PE       0.039600
  14940 C2         22.8430  -10.4250   -8.2670 c3      2490 PE       0.039600
@<TRIPOS>BOND
    1     6     5 1
    2     6    11 1
    3    12    11 1
    4    12    17 1
    5    18    17 1
    6    18    23 1
    7    24    23 1
    8    24    29 1
    9    30    29 1
   10    30    35 1
   11    36    35 1
   12    36    41 1
   13    42    41 1
   14    42    47 1
   15    48    47 1
   16    48    53 1
   17    54    53 1
   18    54    59 1
   19    60    59 1
   20    60    65 1
   21    66    65 1
   22    66    71 1
   23    72    71 1
   24    72    77 1
   25    78    77 1
   26    78    83 1
   27    84    83 1
   28    84    89 1
   29    90    89 1
   30    90    95 1
   31    96    95 1
   32    96   101 1
   33   102   101 1
   34   102   107 1
   35   108   107 1
   36   108   113 1
   37   114   113 1
   38   114   119 1
   39   120   119 1
   40   120   125 1
   41   126   125 1
   42   126   131 1
   43   132   131 1
   44   132   137 1
   45   138   137 1
   46   138   143 1
   47   144   143 1
   48   144   149 1
   49   150   149 1
   50   150   155 1
   51   156   155 1
   52   156   161 1
   53   162   161 1
   54   162   167 1
   55   168   167 1
   56   168   173 1
   57   174   173 1
   58   174   179 1
   59   180   179 1
   60   186   185 1
   61   186   191 1
   62   192   191 1
   63   192   197 1
   64   198   197 1
   65   198   203 1
   66   204   203 1
   67   204   209 1
   68   210   209 1
   69   210   215 1
   70   216   215 1
   71   216   221 1
   72   222   221 1
   73   222   227 1
   74   228   227 1
   75   228   233 1
   76   234   233 1
   77   234   239 1
   78   240   239 1
   79   240   245 1
   80   246   245 1
   81   246   251 1
   82   252   251 1
   83   252   257 1
   84   258   257 1
   85   258   263 1
   86   264   263 1
   87   264   269 1
   88   270   269 1
   89   270   275 1
   90   276   275 1
   91   276   281 1
   92   282   281 1
   93   282   287 1
   94   288   287 1
   95   288   293 1
   96   294   293 1
   97   294   299 1
   98   300   299 1
   99   300   305 1
  100   306   305 1
  101   306   311 1
  102   312   311 1
  103   312   317 1
  104   318   317 1
  105   318   323 1
  106   324   323 1
  107   324   329 1
  108   330   329 1
  109   330   335 1
  110   336   335 1
  111   336   341 1
  112   342   341 1
  113   342   347 1
  114   348   347 1
  115   348   353 1
  116   354   353 1
  117   354   359 1
  118   360   359 1
  119   366   365 1
  120   366   371 1
  121   372   371 1
  122   372   377 1
  123   378   377 1
  124   378   383 1
  125   384   383 1
  126   384   389 1
  127   390   389 1
  128   390   395 1
  129   396   395 1
  130   396   401 1
  131   402   401 1
  132   402   407 1
  133   408   407 1
  134   408   413 1
  135   414   413 1
  136   414   419 1
  137   420   419 1
  138   420   425 1
  139   426   425 1
  140   426   431 1
  141   432   431 1
  142   432   437 1
  143   438   437 1
  144   438   443 1
  145   444   443 1
  146   444   449 1
  147   450   449 1
  148   450   455 1
  149   456   455 1
  150   456   461 1
  151   462   461 1
  152   462   467 1
  153   468   467 1
  154   468   473 1
  155   474   473 1
  156   474   479 1
  157   480   479 1
  158   480   485 1
  159   486   485 1
  160   486   491 1
  161   492   491 1
  162   492   497 1
  163   498   497 1
  164   498   503 1
  165   504   503 1
  166   504   509 1
  167   510   509 1
  168   510   515 1
  169   516   515 1
  170   516   521 1
  171   522   521 1
  172   522   527 1
  173   528   527 1
  174   528   533 1
  175   534   533 1
  176   534   539 1
  177   540   539 1
  178   546   545 1
  179   546   551 1
  180   552   551 1
  181   552   557 1
  182   558   557 1
  183   558   563 1
  184   564   563 1
  185   564   569 1
  186   570   569 1
  187   570   575 1
  188   576   575 1
  189   576   581 1
  190   582   581 1
  191   582   587 1
  192   588   587 1
  193   588   593 1
  194   594   593 1
  195   594   599 1
  196   600   599 1
  197   600   605 1
  198   606   605 1
  199   606   611 1
  200   612   611 1
  201   612   617 1
  202   618   617 1
  203   618   623 1
  204   624   623 1
  205   624   629 1
  206   630   629 1
  207   630   635 1
  208   636   635 1
  209   636   641 1
  210   642   641 1
  211   642   647 1
  212   648   647 1
  213   648   653 1
  214   654   653 1
  215   654   659 1
  216   660   659 1
  217   660   665 1
  218   666   665 1
  219   666   671 1
  220   672   671 1
  221   672   677 1
  222   678   677 1
  223   678   683 1
  224   684   683 1
  225   684   689 1
  226   690   689 1
  227   690   695 1
  228   696   695 1
  229   696   701 1
  230   702   701 1
  231   702   707 1
  232   708   707 1
  233   708   713 1
  234   714   713 1
  235   714   719 1
  236   720   719 1
  237   726   725 1
  238   726   731 1
  239   732   731 1
  240   732   737 1
  241   738   737 1
  242   738   743 1
  243   744   743 1
  244   744   749 1
  245   750   749 1
  246   750   755 1
  247   756   755 1
  248   756   761 1
  249   762   761 1
  250   762   767 1
  251   768   767 1
  252   768   773 1
  253   774   773 1
  254   774   779 1
  255   780   779 1
  256   780   785 1
  257   786   785 1
  258   786   791 1
  259   792   791 1
  260   792   797 1
  261   798   797 1
  262   798   803 1
  263   804   803 1
  264   804   809 1
  265   810   809 1
  266   810   815 1
  267   816   815 1
  268   816   821 1
  269   822   821 1
  270   822   827 1
  271   828   827 1
  272   828   833 1
  273   834   833 1
  274   834   839 1
  275   840   839 1
  276   840   845 1
  277   846   845 1
  278   846   851 1
  279   852   851 1
  280   852   857 1
  281   858   857 1
  282   858   863 1
  283   864   863 1
  284   864   869 1
  285   870   869 1
  286   870   875 1
  287   876   875 1
  288   876   881 1
  289   882   881 1
  290   882   887 1
  291   888   887 1
  292   888   893 1
  293   894   893 1
  294   894   899 1
  295   900   899 1
  296   906   905 1
  297   906   911 1
  298   912   911 1
  299   912   917 1
  300   918   917 1
  301   918   923 1
  302   924   923 1
  303   924   929 1
  304   930   929 1
  305   930   935 1
  306   936   935 1
  307   936   941 1
  308   942   941 1
  309   942   947 1
  310   948   947 1
  311   948   953 1
  312   954   953 1
  313   954   959 1
  314   960   959 1
  315   960   965 1
  316   966   965 1
  317   966   971 1
  318   972   971 1
  319   972   977 1
  320   978   977 1
  321   978   983 1
  322   984   983 1
  323   984   989 1
  324   990   989 1
  325   990   995 1
  326   996   995 1
  327   996  1001 1
  328  1002  1001 1
  329  1002  1007 1
  330  1008  1007 1
  331  1008  1013 1
  332  1014  1013 1
  333  1014  1019 1
  334  1020  1019 1
  335  1020  1025 1
  336  1026  1025 1
  337  1026  1031 1
  338  1032  1031 1
  339  1032  1037 1
  340  1038  1037 1
  341  1038  1043 1
  342  1044  1043 1
  343  1044  1049 1
  344  1050  1049 1
  345  1050  1055 1
  346  1056  1055 1
  347  1056  1061 1
  348  1062  1061 1
  349  1062  1067 1
  350  1068  1067 1
  351  1068  1073 1
  352  1074  1073 1
  353  1074  1079 1
  354  1080  1079 1
  355  1086  1085 1
  356  1086  1091 1
  357  1092  1091 1
  358  1092  1097 1
  359  1098  1097 1
  360  1098  1103 1
  361  1104  1103 1
  362  1104  1109 1
  363  1110  1109 1
  364  1110  1115 1
  365  1116  1115 1
  366  1116  1121 1
  367  1122  1121 1
  368  1122  1127 1
  369  1128  1127 1
  370  1128  1133 1
  371  1134  1133 1
  372  1134  1139 1
  373  1140  1139 1
  374  1140  1145 1
  375  1146  1145 1
  376  1146  1151 1
  377  1152  1151 1
  378  1152  1157 1
  379  1158  1157 1
  380  1158  1163 1
  381  1164  1163 1
  382  1164  1169 1
  383  1170  1169 1
  384  1170  1175 1
  385  1176  1175 1
  386  1176  1181 1
  387  1182  1181 1
  388  1182  1187 1
  389  1188  1187 1
  390  1188  1193 1
  391  1194  1193 1
  392  1194  1199 1
  393  1200  1199 1
  394  1200  1205 1
  395  1206  1205 1
  396  1206  1211 1
  397  1212  1211 1
  398  1212  1217 1
  399  1218  1217 1
  400  1218  1223 1
  401  1224  1223 1
  402  1224  1229 1
  403  1230  1229 1
  404  1230  1235 1
  405  1236  1235 1
  406  1236  1241 1
  407  1242  1241 1
  408  1242  1247 1
  409  1248  1247 1
  410  1248  1253 1
  411  1254  1253 1
  412  1254  1259 1
  413  1260  1259 1
  414  1266  1265 1
  415  1266  1271 1
  416  1272  1271 1
  417  1272  1277 1
  418  1278  1277 1
  419  1278  1283 1
  420  1284  1283 1
  421  1284  1289 1
  422  1290  1289 1
  423  1290  1295 1
  424  1296  1295 1
  425  1296  1301 1
  426  1302  1301 1
  427  1302  1307 1
  428  1308  1307 1
  429  1308  1313 1
  430  1314  1313 1
  431  1314  1319 1
  432  1320  1319 1
  433  1320  1325 1
  434  1326  1325 1
  435  1326  1331 1
  436  1332  1331 1
  437  1332  1337 1
  438  1338  1337 1
  439  1338  1343 1
  440  1344  1343 1
  441  1344  1349 1
  442  1350  1349 1
  443  1350  1355 1
  444  1356  1355 1
  445  1356  1361 1
  446  1362  1361 1
  447  1362  1367 1
  448  1368  1367 1
  449  1368  1373 1
  450  1374  1373 1
  451  1374  1379 1
  452  1380  1379 1
  453  1380  1385 1
  454  1386  1385 1
  455  1386  1391 1
  456  1392  1391 1
  457  1392  1397 1
  458  1398  1397 1
  459  1398  1403 1
  460  1404  1403 1
  461  1404  1409 1
  462  1410  1409 1
  463  1410  1415 1
  464  1416  1415 1
  465  1416  1421 1
  466  1422  1421 1
  467  1422  1427 1
  468  1428  1427 1
  469  1428  1433 1
  470  1434  1433 1
  471  1434  1439 1
  472  1440  1439 1
  473  1446  1445 1
  474  1446  1451 1
  475  1452  1451 1
  476  1452  1457 1
  477  1458  1457 1
  478  1458  1463 1
  479  1464  1463 1
  480  1464  1469 1
  481  1470  1469 1
  482  1470  1475 1
  483  1476  1475 1
  484  1476  1481 1
  485  1482  1481 1
  486  1482  1487 1
  487  1488  1487 1
  488  1488  1493 1
  489  1494  1493 1
  490  1494  1499 1
  491  1500  1499 1
  492  1500  1505 1
  493  1506  1505 1
  494  1506  1511 1
  495  1512  1511 1
  496  1512  1517 1
  497  1518  1517 1
  498  1518  1523 1
  499  1524  1523 1
  500  1524  1529 1
  501  1530  1529 1
  502  1530  1535 1
  503  1536  1535 1
  504  1536  1541 1
  505  1542  1541 1
  506  1542  1547 1
  507  1548  1547 1
  508  1548  1553 1
  509  1554  1553 1
  510  1554  1559 1
  511  1560  1559 1
  512  1560  1565 1
  513  1566  1565 1
  514  1566  1571 1
  515  1572  1571 1
  516  1572  1577 1
  517  1578  1577 1
  518  1578  1583 1
  519  1584  1583 1
  520  1584  1589 1
  521  1590  1589 1
  522  1590  1595 1
  523  1596  1595 1
  524  1596  1601 1
  525  1602  1601 1
  526  1602  1607 1
  527  1608  1607 1
  528  1608  1613 1
  529  1614  1613 1
  530  1614  1619 1
  531  1620  1619 1
  532  1626  1625 1
  533  1626  1631 1
  534  1632  1631 1
  535  1632  1637 1
  536  1638  1637 1
  537  1638  1643 1
  538  1644  1643 1
  539  1644  1649 1
  540  1650  1649 1
  541  1650  1655 1
  542  1656  1655 1
  543  1656  1661 1
  544  1662  1661 1
  545  1662  1667 1
  546  1668  1667 1
  547  1668  1673 1
  548  1674  1673 1
  549  1674  1679 1
  550  1680  1679 1
  551  1680  1685 1
  552  1686  1685 1
  553  1686  1691 1
  554  1692  1691 1
  555  1692  1697 1
  556  1698  1697 1
  557  1698  1703 1
  558  1704  1703 1
  559  1704  1709 1
  560  1710  1709 1
  561  1710  1715 1
  562  1716  1715 1
  563  1716  1721 1
  564  1722  1721 1
  565  1722  1727 1
  566  1728  1727 1
  567  1728  1733 1
  568  1734  1733 1
  569  1734  1739 1
  570  1740  1739 1
  571  1740  1745 1
  572  1746  1745 1
  573  1746  1751 1
  574  1752  1751 1
  575  1752  1757 1
  576  1758  1757 1
  577  1758  1763 1
  578  1764  1763 1
  579  1764  1769 1
  580  1770  1769 1
  581  1770  1775 1
  582  1776  1775 1
  583  1776  1781 1
  584  1782  1781 1
  585  1782  1787 1
  586  1788  1787 1
  587  1788  1793 1
  588  1794  1793 1
  589  1794  1799 1
  590  1800  1799 1
  591  1806  1805 1
  592  1806  1811 1
  593  1812  1811 1
  594  1812  1817 1
  595  1818  1817 1
  596  1818  1823 1
  597  1824  1823 1
  598  1824  1829 1
  599  1830  1829 1
  600  1830  1835 1
  601  1836  1835 1
  602  1836  1841 1
  603  1842  1841 1
  604  1842  1847 1
  605  1848  1847 1
  606  1848  1853 1
  607  1854  1853 1
  608  1854  1859 1
  609  1860  1859 1
  610  1860  1865 1
  611  1866  1865 1
  612  1866  1871 1
  613  1872  1871 1
  614  1872  1877 1
  615  1878  1877 1
  616  1878  1883 1
  617  1884  1883 1
  618  1884  1889 1
  619  1890  1889 1
  620  1890  1895 1
  621  1896  1895 1
  622  1896  1901 1
  623  1902  1901 1
  624  1902  1907 1
  625  1908  1907 1
  626  1908  1913 1
  627  1914  1913 1
  628  1914  1919 1
  629  1920  1919 1
  630  1920  1925 1
  631  1926  1925 1
  632  1926  1931 1
  633  1932  1931 1
  634  1932  1937 1
  635  1938  1937 1
  636  1938  1943 1
  637  1944  1943 1
  638  1944  1949 1
  639  1950  1949 1
  640  1950  1955 1
  641  1956  1955 1
  642  1956  1961 1
  643  1962  1961 1
  644  1962  1967 1
  645  1968  1967 1
  646  1968  1973 1
  647  1974  1973 1
  648  1974  1979 1
  649  1980  1979 1
  650  1986  1985 1
  651  1986  1991 1
  652  1992  1991 1
  653  1992  1997 1
  654  1998  1997 1
  655  1998  2003 1
  656  2004  2003 1
  657  2004  2009 1
  658  2010  2009 1
  659  2010  2015 1
  660  2016  2015 1
  661  2016  2021 1
  662  2022  2021 1
  663  2022  2027 1
  664  2028  2027 1
  665  2028  2033 1
  666  2034  2033 1
  667  2034  2039 1
  668  2040  2039 1
  669  2040  2045 1
  670  2046  2045 1
  671  2046  2051 1
  672  2052  2051 1
  673  2052  2057 1
  674  2058  2057 1
  675  2058  2063 1
  676  2064  2063 1
  677  2064  2069 1
  678  2070  2069 1
  679  2070  2075 1
  680  2076  2075 1
  681  2076  2081 1
  682  2082  2081 1
  683  2082  2087 1
  684  2088  2087 1
  685  2088  2093 1
  686  2094  2093 1
  687  2094  2099 1
  688  2100  2099 1
  689  2100  2105 1
  690  2106  2105 1
  691  2106  2111 1
  692  2112  2111 1
  693  2112  2117 1
  694  2118  2117 1
  695  2118  2123 1
  696  2124  2123 1
  697  2124  2129 1
  698  2130  2129 1
  699  2130  2135 1
  700  2136  2135 1
  701  2136  2141 1
  702  2142  2141 1
  703  2142  2147 1
  704  2148  2147 1
  705  2148  2153 1
  706  2154  2153 1
  707  2154  2159 1
  708  2160  2159 1
  709  2166  2165 1
  710  2166  2171 1
  711  2172  2171 1
  712  2172  2177 1
  713  2178  2177 1
  714  2178  2183 1
  715  2184  2183 1
  716  2184  2189 1
  717  2190  2189 1
  718  2190  2195 1
  719  2196  2195 1
  720  2196  2201 1
  721  2202  2201 1
  722  2202  2207 1
  723  2208  2207 1
  724  2208  2213 1
  725  2214  2213 1
  726  2214  2219 1
  727  2220  2219 1
  728  2220  2225 1
  729  2226  2225 1
  730  2226  2231 1
  731  2232  2231 1
  732  2232  2237 1
  733  2238  2237 1
  734  2238  2243 1
  735  2244  2243 1
  736  2244  2249 1
  737  2250  2249 1
  738  2250  2255 1
  739  2256  2255 1
  740  2256  2261 1
  741  2262  2261 1
  742  2262  2267 1
  743  2268  2267 1
  744  2268  2273 1
  745  2274  2273 1
  746  2274  2279 1
  747  2280  2279 1
  748  2280  2285 1
  749  2286  2285 1
  750  2286  2291 1
  751  2292  2291 1
  752  2292  2297 1
  753  2298  2297 1
  754  2298  2303 1
  755  2304  2303 1
  756  2304  2309 1
  757  2310  2309 1
  758  2310  2315 1
  759  2316  2315 1
  760  2316  2321 1
  761  2322  2321 1
  762  2322  2327 1
  763  2328  2327 1
  764  2328  2333 1
  765  2334  2333 1
  766  2334  2339 1
  767  2340  2339 1
  768  2346  2345 1
  769  2346  2351 1
  770  2352  2351 1
  771  2352  2357 1
  772  2358  2357 1
  773  2358  2363 1
  774  2364  2363 1
  775  2364  2369 1
  776  2370  2369 1
  777  2370  2375 1
  778  2376  2375 1
  779  2376  2381 1
  780  2382  2381 1
  781  2382  2387 1
  782  2388  2387 1
  783  2388  2393 1
  784  2394  2393 1
  785  2394  2399 1
  786  2400  2399 1
  787  2400  2405 1
  788  2406  2405 1
  789  2406  2411 1
  790  2412  2411 1
  791  2412  2417 1
  792  2418  2417 1
  793  2418  2423 1
  794  2424  2423 1
  795  2424  2429 1
  796  2430  2429 1
  797  2430  2435 1
  798  2436  2435 1
  799  2436  2441 1
  800  2442  2441 1
  801  2442  2447 1
  802  2448  2447 1
  803  2448  2453 1
  804  2454  2453 1
  805  2454  2459 1
  806  2460  2459 1
  807  2460  2465 1
  808  2466  2465 1
  809  2466  2471 1
  810  2472  2471 1
  811  2472  2477 1
  812  2478  2477 1
  813  2478  2483 1
  814  2484  2483 1
  815  2484  2489 1
  816  2490  2489 1
  817  2490  2495 1
  818  2496  2495 1
  819  2496  2501 1
  820  2502  2501 1
  821  2502  2507 1
  822  2508  2507 1
  823  2508  2513 1
  824  2514  2513 1
  825  2514  2519 1
  826  2520  2519 1
  827  2526  2525 1
  828  2526  2531 1
  829  2532  2531 1
  830  2532  2537 1
  831  2538  2537 1
  832  2538  2543 1
  833  2544  2543 1
  834  2544  2549 1
  835  2550  2549 1
  836  2550  2555 1
  837  2556  2555 1
  838  2556  2561 1
  839  2562  2561 1
  840  2562  2567 1
  841  2568  2567 1
  842  2568  2573 1
  843  2574  2573 1
  844  2574  2579 1
  845  2580  2579 1
  846  2580  2585 1
  847  2586  2585 1
  848  2586  2591 1
  849  2592  2591 1
  850  2592  2597 1
  851  2598  2597 1
  852  2598  2603 1
  853  2604  2603 1
  854  2604  2609 1
  855  2610  2609 1
  856  2610  2615 1
  857  2616  2615 1
  858  2616  2621 1
  859  2622  2621 1
  860  2622  2627 1
  861  2628  2627 1
  862  2628  2633 1
  863  2634  2633 1
  864  2634  2639 1
  865  2640  2639 1
  866  2640  2645 1
  867  2646  2645 1
  868  2646  2651 1
  869  2652  2651 1
  870  2652  2657 1
  871  2658  2657 1
  872  2658  2663 1
  873  2664  2663 1
  874  2664  2669 1
  875  2670  2669 1
  876  2670  2675 1
  877  2676  2675 1
  878  2676  2681 1
  879  2682  2681 1
  880  2682  2687 1
  881  2688  2687 1
  882  2688  2693 1
  883  2694  2693 1
  884  2694  2699 1
  885  2700  2699 1
  886  2706  2705 1
  887  2706  2711 1
  888  2712  2711 1
  889  2712  2717 1
  890  2718  2717 1
  891  2718  2723 1
  892  2724  2723 1
  893  2724  2729 1
  894  2730  2729 1
  895  2730  2735 1
  896  2736  2735 1
  897  2736  2741 1
  898  2742  2741 1
  899  2742  2747 1
  900  2748  2747 1
  901  2748  2753 1
  902  2754  2753 1
  903  2754  2759 1
  904  2760  2759 1
  905  2760  2765 1
  906  2766  2765 1
  907  2766  2771 1
  908  2772  2771 1
  909  2772  2777 1
  910  2778  2777 1
  911  2778  2783 1
  912  2784  2783 1
  913  2784  2789 1
  914  2790  2789 1
  915  2790  2795 1
  916  2796  2795 1
  917  2796  2801 1
  918  2802  2801 1
  919  2802  2807 1
  920  2808  2807 1
  921  2808  2813 1
  922  2814  2813 1
  923  2814  2819 1
  924  2820  2819 1
  925  2820  2825 1
  926  2826  2825 1
  927  2826  2831 1
  928  2832  2831 1
  929  2832  2837 1
  930  2838  2837 1
  931  2838  2843 1
  932  2844  2843 1
  933  2844  2849 1
  934  2850  2849 1
  935  2850  2855 1
  936  2856  2855 1
  937  2856  2861 1
  938  2862  2861 1
  939  2862  2867 1
  940  2868  2867 1
  941  2868  2873 1
  942  2874  2873 1
  943  2874  2879 1
  944  2880  2879 1
  945  2886  2885 1
  946  2886  2891 1
  947  2892  2891 1
  948  2892  2897 1
  949  2898  2897 1
  950  2898  2903 1
  951  2904  2903 1
  952  2904  2909 1
  953  2910  2909 1
  954  2910  2915 1
  955  2916  2915 1
  956  2916  2921 1
  957  2922  2921 1
  958  2922  2927 1
  959  2928  2927 1
  960  2928  2933 1
  961  2934  2933 1
  962  2934  2939 1
  963  2940  2939 1
  964  2940  2945 1
  965  2946  2945 1
  966  2946  2951 1
  967  2952  2951 1
  968  2952  2957 1
  969  2958  2957 1
  970  2958  2963 1
  971  2964  2963 1
  972  2964  2969 1
  973  2970  2969 1
  974  2970  2975 1
  975  2976  2975 1
  976  2976  2981 1
  977  2982  2981 1
  978  2982  2987 1
  979  2988  2987 1
  980  2988  2993 1
  981  2994  2993 1
  982  2994  2999 1
  983  3000  2999 1
  984  3000  3005 1
  985  3006  3005 1
  986  3006  3011 1
  987  3012  3011 1
  988  3012  3017 1
  989  3018  3017 1
  990  3018  3023 1
  991  3024  3023 1
  992  3024  3029 1
  993  3030  3029 1
  994  3030  3035 1
  995  3036  3035 1
  996  3036  3041 1
  997  3042  3041 1
  998  3042  3047 1
  999  3048  3047 1
 1000  3048  3053 1
 1001  3054  3053 1
 1002  3054  3059 1
 1003  3060  3059 1
 1004  3066  3065 1
 1005  3066  3071 1
 1006  3072  3071 1
 1007  3072  3077 1
 1008  3078  3077 1
 1009  3078  3083 1
 1010  3084  3083 1
 1011  3084  3089 1
 1012  3090  3089 1
 1013  3090  3095 1
 1014  3096  3095 1
 1015  3096  3101 1
 1016  3102  3101 1
 1017  3102  3107 1
 1018  3108  3107 1
 1019  3108  3113 1
 1020  3114  3113 1
 1021  3114  3119 1
 1022  3120  3119 1
 1023  3120  3125 1
 1024  3126  3125 1
 1025  3126  3131 1
 1026  3132  3131 1
 1027  3132  3137 1
 1028  3138  3137 1
 1029  3138  3143 1
 1030  3144  3143 1
 1031  3144  3149 1
 1032  3150  3149 1
 1033  3150  3155 1
 1034  3156  3155 1
 1035  3156  3161 1
 1036  3162  3161 1
 1037  3162  3167 1
 1038  3168  3167 1
 1039  3168  3173 1
 1040  3174  3173 1
 1041  3174  3179 1
 1042  3180  3179 1
 1043  3180  3185 1
 1044  3186  3185 1
 1045  3186  3191 1
 1046  3192  3191 1
 1047  3192  3197 1
 1048  3198  3197 1
 1049  3198  3203 1
 1050  3204  3203 1
 1051  3204  3209 1
 1052  3210  3209 1
 1053  3210  3215 1
 1054  3216  3215 1
 1055  3216  3221 1
 1056  3222  3221 1
 1057  3222  3227 1
 1058  3228  3227 1
 1059  3228  3233 1
 1060  3234  3233 1
 1061  3234  3239 1
 1062  3240  3239 1
 1063  3246  3245 1
 1064  3246  3251 1
 1065  3252  3251 1
 1066  3252  3257 1
 1067  3258  3257 1
 1068  3258  3263 1
 1069  3264  3263 1
 1070  3264  3269 1
 1071  3270  3269 1
 1072  3270  3275 1
 1073  3276  3275 1
 1074  3276  3281 1
 1075  3282  3281 1
 1076  3282  3287 1
 1077  3288  3287 1
 1078  3288  3293 1
 1079  3294  3293 1
 1080  3294  3299 1
 1081  3300  3299 1
 1082  3300  3305 1
 1083  3306  3305 1
 1084  3306  3311 1
 1085  3312  3311 1
 1086  3312  3317 1
 1087  3318  3317 1
 1088  3318  3323 1
 1089  3324  3323 1
 1090  3324  3329 1
 1091  3330  3329 1
 1092  3330  3335 1
 1093  3336  3335 1
 1094  3336  3341 1
 1095  3342  3341 1
 1096  3342  3347 1
 1097  3348  3347 1
 1098  3348  3353 1
 1099  3354  3353 1
 1100  3354  3359 1
 1101  3360  3359 1
 1102  3360  3365 1
 1103  3366  3365 1
 1104  3366  3371 1
 1105  3372  3371 1
 1106  3372  3377 1
 1107  3378  3377 1
 1108  3378  3383 1
 1109  3384  3383 1
 1110  3384  3389 1
 1111  3390  3389 1
 1112  3390  3395 1
 1113  3396  3395 1
 1114  3396  3401 1
 1115  3402  3401 1
 1116  3402  3407 1
 1117  3408  3407 1
 1118  3408  3413 1
 1119  3414  3413 1
 1120  3414  3419 1
 1121  3420  3419 1
 1122  3426  3425 1
 1123  3426  3431 1
 1124  3432  3431 1
 1125  3432  3437 1
 1126  3438  3437 1
 1127  3438  3443 1
 1128  3444  3443 1
 1129  3444  3449 1
 1130  3450  3449 1
 1131  3450  3455 1
 1132  3456  3455 1
 1133  3456  3461 1
 1134  3462  3461 1
 1135  3462  3467 1
 1136  3468  3467 1
 1137  3468  3473 1
 1138  3474  3473 1
 1139  3474  3479 1
 1140  3480  3479 1
 1141  3480  3485 1
 1142  3486  3485 1
 1143  3486  3491 1
 1144  3492  3491 1
 1145  3492  3497 1
 1146  3498  3497 1
 1147  3498  3503 1
 1148  3504  3503 1
 1149  3504  3509 1
 1150  3510  3509 1
 1151  3510  3515 1
 1152  3516  3515 1
 1153  3516  3521 1
 1154  3522  3521 1
 1155  3522  3527 1
 1156  3528  3527 1
 1157  3528  3533 1
 1158  3534  3533 1
 1159  3534  3539 1
 1160  3540  3539 1
 1161  3540  3545 1
 1162  3546  3545 1
 1163  3546  3551 1
 1164  3552  3551 1
 1165  3552  3557 1
 1166  3558  3557 1
 1167  3558  3563 1
 1168  3564  3563 1
 1169  3564  3569 1
 1170  3570  3569 1
 1171  3570  3575 1
 1172  3576  3575 1
 1173  3576  3581 1
 1174  3582  3581 1
 1175  3582  3587 1
 1176  3588  3587 1
 1177  3588  3593 1
 1178  3594  3593 1
 1179  3594  3599 1
 1180  3600  3599 1
 1181  3606  3605 1
 1182  3606  3611 1
 1183  3612  3611 1
 1184  3612  3617 1
 1185  3618  3617 1
 1186  3618  3623 1
 1187  3624  3623 1
 1188  3624  3629 1
 1189  3630  3629 1
 1190  3630  3635 1
 1191  3636  3635 1
 1192  3636  3641 1
 1193  3642  3641 1
 1194  3642  3647 1
 1195  3648  3647 1
 1196  3648  3653 1
 1197  3654  3653 1
 1198  3654  3659 1
 1199  3660  3659 1
 1200  3660  3665 1
 1201  3666  3665 1
 1202  3666  3671 1
 1203  3672  3671 1
 1204  3672  3677 1
 1205  3678  3677 1
 1206  3678  3683 1
 1207  3684  3683 1
 1208  3684  3689 1
 1209  3690  3689 1
 1210  3690  3695 1
 1211  3696  3695 1
 1212  3696  3701 1
 1213  3702  3701 1
 1214  3702  3707 1
 1215  3708  3707 1
 1216  3708  3713 1
 1217  3714  3713 1
 1218  3714  3719 1
 1219  3720  3719 1
 1220  3720  3725 1
 1221  3726  3725 1
 1222  3726  3731 1
 1223  3732  3731 1
 1224  3732  3737 1
 1225  3738  3737 1
 1226  3738  3743 1
 1227  3744  3743 1
 1228  3744  3749 1
 1229  3750  3749 1
 1230  3750  3755 1
 1231  3756  3755 1
 1232  3756  3761 1
 1233  3762  3761 1
 1234  3762  3767 1
 1235  3768  3767 1
 1236  3768  3773 1
 1237  3774  3773 1
 1238  3774  3779 1
 1239  3780  3779 1
 1240  3786  3785 1
 1241  3786  3791 1
 1242  3792  3791 1
 1243  3792  3797 1
 1244  3798  3797 1
 1245  3798  3803 1
 1246  3804  3803 1
 1247  3804  3809 1
 1248  3810  3809 1
 1249  3810  3815 1
 1250  3816  3815 1
 1251  3816  3821 1
 1252  3822  3821 1
 1253  3822  3827 1
 1254  3828  3827 1
 1255  3828  3833 1
 1256  3834  3833 1
 1257  3834  3839 1
 1258  3840  3839 1
 1259  3840  3845 1
 1260  3846  3845 1
 1261  3846  3851 1
 1262  3852  3851 1
 1263  3852  3857 1
 1264  3858  3857 1
 1265  3858  3863 1
 1266  3864  3863 1
 1267  3864  3869 1
 1268  3870  3869 1
 1269  3870  3875 1
 1270  3876  3875 1
 1271  3876  3881 1
 1272  3882  3881 1
 1273  3882  3887 1
 1274  3888  3887 1
 1275  3888  3893 1
 1276  3894  3893 1
 1277  3894  3899 1
 1278  3900  3899 1
 1279  3900  3905 1
 1280  3906  3905 1
 1281  3906  3911 1
 1282  3912  3911 1
 1283  3912  3917 1
 1284  3918  3917 1
 1285  3918  3923 1
 1286  3924  3923 1
 1287  3924  3929 1
 1288  3930  3929 1
 1289  3930  3935 1
 1290  3936  3935 1
 1291  3936  3941 1
 1292  3942  3941 1
 1293  3942  3947 1
 1294  3948  3947 1
 1295  3948  3953 1
 1296  3954  3953 1
 1297  3954  3959 1
 1298  3960  3959 1
 1299  3966  3965 1
 1300  3966  3971 1
 1301  3972  3971 1
 1302  3972  3977 1
 1303  3978  3977 1
 1304  3978  3983 1
 1305  3984  3983 1
 1306  3984  3989 1
 1307  3990  3989 1
 1308  3990  3995 1
 1309  3996  3995 1
 1310  3996  4001 1
 1311  4002  4001 1
 1312  4002  4007 1
 1313  4008  4007 1
 1314  4008  4013 1
 1315  4014  4013 1
 1316  4014  4019 1
 1317  4020  4019 1
 1318  4020  4025 1
 1319  4026  4025 1
 1320  4026  4031 1
 1321  4032  4031 1
 1322  4032  4037 1
 1323  4038  4037 1
 1324  4038  4043 1
 1325  4044  4043 1
 1326  4044  4049 1
 1327  4050  4049 1
 1328  4050  4055 1
 1329  4056  4055 1
 1330  4056  4061 1
 1331  4062  4061 1
 1332  4062  4067 1
 1333  4068  4067 1
 1334  4068  4073 1
 1335  4074  4073 1
 1336  4074  4079 1
 1337  4080  4079 1
 1338  4080  4085 1
 1339  4086  4085 1
 1340  4086  4091 1
 1341  4092  4091 1
 1342  4092  4097 1
 1343  4098  4097 1
 1344  4098  4103 1
 1345  4104  4103 1
 1346  4104  4109 1
 1347  4110  4109 1
 1348  4110  4115 1
 1349  4116  4115 1
 1350  4116  4121 1
 1351  4122  4121 1
 1352  4122  4127 1
 1353  4128  4127 1
 1354  4128  4133 1
 1355  4134  4133 1
 1356  4134  4139 1
 1357  4140  4139 1
 1358  4146  4145 1
 1359  4146  4151 1
 1360  4152  4151 1
 1361  4152  4157 1
 1362  4158  4157 1
 1363  4158  4163 1
 1364  4164  4163 1
 1365  4164  4169 1
 1366  4170  4169 1
 1367  4170  4175 1
 1368  4176  4175 1
 1369  4176  4181 1
 1370  4182  4181 1
 1371  4182  4187 1
 1372  4188  4187 1
 1373  4188  4193 1
 1374  4194  4193 1
 1375  4194  4199 1
 1376  4200  4199 1
 1377  4200  4205 1
 1378  4206  4205 1
 1379  4206  4211 1
 1380  4212  4211 1
 1381  4212  4217 1
 1382  4218  4217 1
 1383  4218  4223 1
 1384  4224  4223 1
 1385  4224  4229 1
 1386  4230  4229 1
 1387  4230  4235 1
 1388  4236  4235 1
 1389  4236  4241 1
 1390  4242  4241 1
 1391  4242  4247 1
 1392  4248  4247 1
 1393  4248  4253 1
 1394  4254  4253 1
 1395  4254  4259 1
 1396  4260  4259 1
 1397  4260  4265 1
 1398  4266  4265 1
 1399  4266  4271 1
 1400  4272  4271 1
 1401  4272  4277 1
 1402  4278  4277 1
 1403  4278  4283 1
 1404  4284  4283 1
 1405  4284  4289 1
 1406  4290  4289 1
 1407  4290  4295 1
 1408  4296  4295 1
 1409  4296  4301 1
 1410  4302  4301 1
 1411  4302  4307 1
 1412  4308  4307 1
 1413  4308  4313 1
 1414  4314  4313 1
 1415  4314  4319 1
 1416  4320  4319 1
 1417  4326  4325 1
 1418  4326  4331 1
 1419  4332  4331 1
 1420  4332  4337 1
 1421  4338  4337 1
 1422  4338  4343 1
 1423  4344  4343 1
 1424  4344  4349 1
 1425  4350  4349 1
 1426  4350  4355 1
 1427  4356  4355 1
 1428  4356  4361 1
 1429  4362  4361 1
 1430  4362  4367 1
 1431  4368  4367 1
 1432  4368  4373 1
 1433  4374  4373 1
 1434  4374  4379 1
 1435  4380  4379 1
 1436  4380  4385 1
 1437  4386  4385 1
 1438  4386  4391 1
 1439  4392  4391 1
 1440  4392  4397 1
 1441  4398  4397 1
 1442  4398  4403 1
 1443  4404  4403 1
 1444  4404  4409 1
 1445  4410  4409 1
 1446  4410  4415 1
 1447  4416  4415 1
 1448  4416  4421 1
 1449  4422  4421 1
 1450  4422  4427 1
 1451  4428  4427 1
 1452  4428  4433 1
 1453  4434  4433 1
 1454  4434  4439 1
 1455  4440  4439 1
 1456  4440  4445 1
 1457  4446  4445 1
 1458  4446  4451 1
 1459  4452  4451 1
 1460  4452  4457 1
 1461  4458  4457 1
 1462  4458  4463 1
 1463  4464  4463 1
 1464  4464  4469 1
 1465  4470  4469 1
 1466  4470  4475 1
 1467  4476  4475 1
 1468  4476  4481 1
 1469  4482  4481 1
 1470  4482  4487 1
 1471  4488  4487 1
 1472  4488  4493 1
 1473  4494  4493 1
 1474  4494  4499 1
 1475  4500  4499 1
 1476  4506  4505 1
 1477  4506  4511 1
 1478  4512  4511 1
 1479  4512  4517 1
 1480  4518  4517 1
 1481  4518  4523 1
 1482  4524  4523 1
 1483  4524  4529 1
 1484  4530  4529 1
 1485  4530  4535 1
 1486  4536  4535 1
 1487  4536  4541 1
 1488  4542  4541 1
 1489  4542  4547 1
 1490  4548  4547 1
 1491  4548  4553 1
 1492  4554  4553 1
 1493  4554  4559 1
 1494  4560  4559 1
 1495  4560  4565 1
 1496  4566  4565 1
 1497  4566  4571 1
 1498  4572  4571 1
 1499  4572  4577 1
 1500  4578  4577 1
 1501  4578  4583 1
 1502  4584  4583 1
 1503  4584  4589 1
 1504  4590  4589 1
 1505  4590  4595 1
 1506  4596  4595 1
 1507  4596  4601 1
 1508  4602  4601 1
 1509  4602  4607 1
 1510  4608  4607 1
 1511  4608  4613 1
 1512  4614  4613 1
 1513  4614  4619 1
 1514  4620  4619 1
 1515  4620  4625 1
 1516  4626  4625 1
 1517  4626  4631 1
 1518  4632  4631 1
 1519  4632  4637 1
 1520  4638  4637 1
 1521  4638  4643 1
 1522  4644  4643 1
 1523  4644  4649 1
 1524  4650  4649 1
 1525  4650  4655 1
 1526  4656  4655 1
 1527  4656  4661 1
 1528  4662  4661 1
 1529  4662  4667 1
 1530  4668  4667 1
 1531  4668  4673 1
 1532  4674  4673 1
 1533  4674  4679 1
 1534  4680  4679 1
 1535  4686  4685 1
 1536  4686  4691 1
 1537  4692  4691 1
 1538  4692  4697 1
 1539  4698  4697 1
 1540  4698  4703 1
 1541  4704  4703 1
 1542  4704  4709 1
 1543  4710  4709 1
 1544  4710  4715 1
 1545  4716  4715 1
 1546  4716  4721 1
 1547  4722  4721 1
 1548  4722  4727 1
 1549  4728  4727 1
 1550  4728  4733 1
 1551  4734  4733 1
 1552  4734  4739 1
 1553  4740  4739 1
 1554  4740  4745 1
 1555  4746  4745 1
 1556  4746  4751 1
 1557  4752  4751 1
 1558  4752  4757 1
 1559  4758  4757 1
 1560  4758  4763 1
 1561  4764  4763 1
 1562  4764  4769 1
 1563  4770  4769 1
 1564  4770  4775 1
 1565  4776  4775 1
 1566  4776  4781 1
 1567  4782  4781 1
 1568  4782  4787 1
 1569  4788  4787 1
 1570  4788  4793 1
 1571  4794  4793 1
 1572  4794  4799 1
 1573  4800  4799 1
 1574  4800  4805 1
 1575  4806  4805 1
 1576  4806  4811 1
 1577  4812  4811 1
 1578  4812  4817 1
 1579  4818  4817 1
 1580  4818  4823 1
 1581  4824  4823 1
 1582  4824  4829 1
 1583  4830  4829 1
 1584  4830  4835 1
 1585  4836  4835 1
 1586  4836  4841 1
 1587  4842  4841 1
 1588  4842  4847 1
 1589  4848  4847 1
 1590  4848  4853 1
 1591  4854  4853 1
 1592  4854  4859 1
 1593  4860  4859 1
 1594  4866  4865 1
 1595  4866  4871 1
 1596  4872  4871 1
 1597  4872  4877 1
 1598  4878  4877 1
 1599  4878  4883 1
 1600  4884  4883 1
 1601  4884  4889 1
 1602  4890  4889 1
 1603  4890  4895 1
 1604  4896  4895 1
 1605  4896  4901 1
 1606  4902  4901 1
 1607  4902  4907 1
 1608  4908  4907 1
 1609  4908  4913 1
 1610  4914  4913 1
 1611  4914  4919 1
 1612  4920  4919 1
 1613  4920  4925 1
 1614  4926  4925 1
 1615  4926  4931 1
 1616  4932  4931 1
 1617  4932  4937 1
 1618  4938  4937 1
 1619  4938  4943 1
 1620  4944  4943 1
 1621  4944  4949 1
 1622  4950  4949 1
 1623  4950  4955 1
 1624  4956  4955 1
 1625  4956  4961 1
 1626  4962  4961 1
 1627  4962  4967 1
 1628  4968  4967 1
 1629  4968  4973 1
 1630  4974  4973 1
 1631  4974  4979 1
 1632  4980  4979 1
 1633  4980  4985 1
 1634  4986  4985 1
 1635  4986  4991 1
 1636  4992  4991 1
 1637  4992  4997 1
 1638  4998  4997 1
 1639  4998  5003 1
 1640  5004  5003 1
 1641  5004  5009 1
 1642  5010  5009 1
 1643  5010  5015 1
 1644  5016  5015 1
 1645  5016  5021 1
 1646  5022  5021 1
 1647  5022  5027 1
 1648  5028  5027 1
 1649  5028  5033 1
 1650  5034  5033 1
 1651  5034  5039 1
 1652  5040  5039 1
 1653  5046  5045 1
 1654  5046  5051 1
 1655  5052  5051 1
 1656  5052  5057 1
 1657  5058  5057 1
 1658  5058  5063 1
 1659  5064  5063 1
 1660  5064  5069 1
 1661  5070  5069 1
 1662  5070  5075 1
 1663  5076  5075 1
 1664  5076  5081 1
 1665  5082  5081 1
 1666  5082  5087 1
 1667  5088  5087 1
 1668  5088  5093 1
 1669  5094  5093 1
 1670  5094  5099 1
 1671  5100  5099 1
 1672  5100  5105 1
 1673  5106  5105 1
 1674  5106  5111 1
 1675  5112  5111 1
 1676  5112  5117 1
 1677  5118  5117 1
 1678  5118  5123 1
 1679  5124  5123 1
 1680  5124  5129 1
 1681  5130  5129 1
 1682  5130  5135 1
 1683  5136  5135 1
 1684  5136  5141 1
 1685  5142  5141 1
 1686  5142  5147 1
 1687  5148  5147 1
 1688  5148  5153 1
 1689  5154  5153 1
 1690  5154  5159 1
 1691  5160  5159 1
 1692  5160  5165 1
 1693  5166  5165 1
 1694  5166  5171 1
 1695  5172  5171 1
 1696  5172  5177 1
 1697  5178  5177 1
 1698  5178  5183 1
 1699  5184  5183 1
 1700  5184  5189 1
 1701  5190  5189 1
 1702  5190  5195 1
 1703  5196  5195 1
 1704  5196  5201 1
 1705  5202  5201 1
 1706  5202  5207 1
 1707  5208  5207 1
 1708  5208  5213 1
 1709  5214  5213 1
 1710  5214  5219 1
 1711  5220  5219 1
 1712  5226  5225 1
 1713  5226  5231 1
 1714  5232  5231 1
 1715  5232  5237 1
 1716  5238  5237 1
 1717  5238  5243 1
 1718  5244  5243 1
 1719  5244  5249 1
 1720  5250  5249 1
 1721  5250  5255 1
 1722  5256  5255 1
 1723  5256  5261 1
 1724  5262  5261 1
 1725  5262  5267 1
 1726  5268  5267 1
 1727  5268  5273 1
 1728  5274  5273 1
 1729  5274  5279 1
 1730  5280  5279 1
 1731  5280  5285 1
 1732  5286  5285 1
 1733  5286  5291 1
 1734  5292  5291 1
 1735  5292  5297 1
 1736  5298  5297 1
 1737  5298  5303 1
 1738  5304  5303 1
 1739  5304  5309 1
 1740  5310  5309 1
 1741  5310  5315 1
 1742  5316  5315 1
 1743  5316  5321 1
 1744  5322  5321 1
 1745  5322  5327 1
 1746  5328  5327 1
 1747  5328  5333 1
 1748  5334  5333 1
 1749  5334  5339 1
 1750  5340  5339 1
 1751  5340  5345 1
 1752  5346  5345 1
 1753  5346  5351 1
 1754  5352  5351 1
 1755  5352  5357 1
 1756  5358  5357 1
 1757  5358  5363 1
 1758  5364  5363 1
 1759  5364  5369 1
 1760  5370  5369 1
 1761  5370  5375 1
 1762  5376  5375 1
 1763  5376  5381 1
 1764  5382  5381 1
 1765  5382  5387 1
 1766  5388  5387 1
 1767  5388  5393 1
 1768  5394  5393 1
 1769  5394  5399 1
 1770  5400  5399 1
 1771  5406  5405 1
 1772  5406  5411 1
 1773  5412  5411 1
 1774  5412  5417 1
 1775  5418  5417 1
 1776  5418  5423 1
 1777  5424  5423 1
 1778  5424  5429 1
 1779  5430  5429 1
 1780  5430  5435 1
 1781  5436  5435 1
 1782  5436  5441 1
 1783  5442  5441 1
 1784  5442  5447 1
 1785  5448  5447 1
 1786  5448  5453 1
 1787  5454  5453 1
 1788  5454  5459 1
 1789  5460  5459 1
 1790  5460  5465 1
 1791  5466  5465 1
 1792  5466  5471 1
 1793  5472  5471 1
 1794  5472  5477 1
 1795  5478  5477 1
 1796  5478  5483 1
 1797  5484  5483 1
 1798  5484  5489 1
 1799  5490  5489 1
 1800  5490  5495 1
 1801  5496  5495 1
 1802  5496  5501 1
 1803  5502  5501 1
 1804  5502  5507 1
 1805  5508  5507 1
 1806  5508  5513 1
 1807  5514  5513 1
 1808  5514  5519 1
 1809  5520  5519 1
 1810  5520  5525 1
 1811  5526  5525 1
 1812  5526  5531 1
 1813  5532  5531 1
 1814  5532  5537 1
 1815  5538  5537 1
 1816  5538  5543 1
 1817  5544  5543 1
 1818  5544  5549 1
 1819  5550  5549 1
 1820  5550  5555 1
 1821  5556  5555 1
 1822  5556  5561 1
 1823  5562  5561 1
 1824  5562  5567 1
 1825  5568  5567 1
 1826  5568  5573 1
 1827  5574  5573 1
 1828  5574  5579 1
 1829  5580  5579 1
 1830  5586  5585 1
 1831  5586  5591 1
 1832  5592  5591 1
 1833  5592  5597 1
 1834  5598  5597 1
 1835  5598  5603 1
 1836  5604  5603 1
 1837  5604  5609 1
 1838  5610  5609 1
 1839  5610  5615 1
 1840  5616  5615 1
 1841  5616  5621 1
 1842  5622  5621 1
 1843  5622  5627 1
 1844  5628  5627 1
 1845  5628  5633 1
 1846  5634  5633 1
 1847  5634  5639 1
 1848  5640  5639 1
 1849  5640  5645 1
 1850  5646  5645 1
 1851  5646  5651 1
 1852  5652  5651 1
 1853  5652  5657 1
 1854  5658  5657 1
 1855  5658  5663 1
 1856  5664  5663 1
 1857  5664  5669 1
 1858  5670  5669 1
 1859  5670  5675 1
 1860  5676  5675 1
 1861  5676  5681 1
 1862  5682  5681 1
 1863  5682  5687 1
 1864  5688  5687 1
 1865  5688  5693 1
 1866  5694  5693 1
 1867  5694  5699 1
 1868  5700  5699 1
 1869  5700  5705 1
 1870  5706  5705 1
 1871  5706  5711 1
 1872  5712  5711 1
 1873  5712  5717 1
 1874  5718  5717 1
 1875  5718  5723 1
 1876  5724  5723 1
 1877  5724  5729 1
 1878  5730  5729 1
 1879  5730  5735 1
 1880  5736  5735 1
 1881  5736  5741 1
 1882  5742  5741 1
 1883  5742  5747 1
 1884  5748  5747 1
 1885  5748  5753 1
 1886  5754  5753 1
 1887  5754  5759 1
 1888  5760  5759 1
 1889  5766  5765 1
 1890  5766  5771 1
 1891  5772  5771 1
 1892  5772  5777 1
 1893  5778  5777 1
 1894  5778  5783 1
 1895  5784  5783 1
 1896  5784  5789 1
 1897  5790  5789 1
 1898  5790  5795 1
 1899  5796  5795 1
 1900  5796  5801 1
 1901  5802  5801 1
 1902  5802  5807 1
 1903  5808  5807 1
 1904  5808  5813 1
 1905  5814  5813 1
 1906  5814  5819 1
 1907  5820  5819 1
 1908  5820  5825 1
 1909  5826  5825 1
 1910  5826  5831 1
 1911  5832  5831 1
 1912  5832  5837 1
 1913  5838  5837 1
 1914  5838  5843 1
 1915  5844  5843 1
 1916  5844  5849 1
 1917  5850  5849 1
 1918  5850  5855 1
 1919  5856  5855 1
 1920  5856  5861 1
 1921  5862  5861 1
 1922  5862  5867 1
 1923  5868  5867 1
 1924  5868  5873 1
 1925  5874  5873 1
 1926  5874  5879 1
 1927  5880  5879 1
 1928  5880  5885 1
 1929  5886  5885 1
 1930  5886  5891 1
 1931  5892  5891 1
 1932  5892  5897 1
 1933  5898  5897 1
 1934  5898  5903 1
 1935  5904  5903 1
 1936  5904  5909 1
 1937  5910  5909 1
 1938  5910  5915 1
 1939  5916  5915 1
 1940  5916  5921 1
 1941  5922  5921 1
 1942  5922  5927 1
 1943  5928  5927 1
 1944  5928  5933 1
 1945  5934  5933 1
 1946  5934  5939 1
 1947  5940  5939 1
 1948  5946  5945 1
 1949  5946  5951 1
 1950  5952  5951 1
 1951  5952  5957 1
 1952  5958  5957 1
 1953  5958  5963 1
 1954  5964  5963 1
 1955  5964  5969 1
 1956  5970  5969 1
 1957  5970  5975 1
 1958  5976  5975 1
 1959  5976  5981 1
 1960  5982  5981 1
 1961  5982  5987 1
 1962  5988  5987 1
 1963  5988  5993 1
 1964  5994  5993 1
 1965  5994  5999 1
 1966  6000  5999 1
 1967  6000  6005 1
 1968  6006  6005 1
 1969  6006  6011 1
 1970  6012  6011 1
 1971  6012  6017 1
 1972  6018  6017 1
 1973  6018  6023 1
 1974  6024  6023 1
 1975  6024  6029 1
 1976  6030  6029 1
 1977  6030  6035 1
 1978  6036  6035 1
 1979  6036  6041 1
 1980  6042  6041 1
 1981  6042  6047 1
 1982  6048  6047 1
 1983  6048  6053 1
 1984  6054  6053 1
 1985  6054  6059 1
 1986  6060  6059 1
 1987  6060  6065 1
 1988  6066  6065 1
 1989  6066  6071 1
 1990  6072  6071 1
 1991  6072  6077 1
 1992  6078  6077 1
 1993  6078  6083 1
 1994  6084  6083 1
 1995  6084  6089 1
 1996  6090  6089 1
 1997  6090  6095 1
 1998  6096  6095 1
 1999  6096  6101 1
 2000  6102  6101 1
 2001  6102  6107 1
 2002  6108  6107 1
 2003  6108  6113 1
 2004  6114  6113 1
 2005  6114  6119 1
 2006  6120  6119 1
 2007  6126  6125 1
 2008  6126  6131 1
 2009  6132  6131 1
 2010  6132  6137 1
 2011  6138  6137 1
 2012  6138  6143 1
 2013  6144  6143 1
 2014  6144  6149 1
 2015  6150  6149 1
 2016  6150  6155 1
 2017  6156  6155 1
 2018  6156  6161 1
 2019  6162  6161 1
 2020  6162  6167 1
 2021  6168  6167 1
 2022  6168  6173 1
 2023  6174  6173 1
 2024  6174  6179 1
 2025  6180  6179 1
 2026  6180  6185 1
 2027  6186  6185 1
 2028  6186  6191 1
 2029  6192  6191 1
 2030  6192  6197 1
 2031  6198  6197 1
 2032  6198  6203 1
 2033  6204  6203 1
 2034  6204  6209 1
 2035  6210  6209 1
 2036  6210  6215 1
 2037  6216  6215 1
 2038  6216  6221 1
 2039  6222  6221 1
 2040  6222  6227 1
 2041  6228  6227 1
 2042  6228  6233 1
 2043  6234  6233 1
 2044  6234  6239 1
 2045  6240  6239 1
 2046  6240  6245 1
 2047  6246  6245 1
 2048  6246  6251 1
 2049  6252  6251 1
 2050  6252  6257 1
 2051  6258  6257 1
 2052  6258  6263 1
 2053  6264  6263 1
 2054  6264  6269 1
 2055  6270  6269 1
 2056  6270  6275 1
 2057  6276  6275 1
 2058  6276  6281 1
 2059  6282  6281 1
 2060  6282  6287 1
 2061  6288  6287 1
 2062  6288  6293 1
 2063  6294  6293 1
 2064  6294  6299 1
 2065  6300  6299 1
 2066  6306  6305 1
 2067  6306  6311 1
 2068  6312  6311 1
 2069  6312  6317 1
 2070  6318  6317 1
 2071  6318  6323 1
 2072  6324  6323 1
 2073  6324  6329 1
 2074  6330  6329 1
 2075  6330  6335 1
 2076  6336  6335 1
 2077  6336  6341 1
 2078  6342  6341 1
 2079  6342  6347 1
 2080  6348  6347 1
 2081  6348  6353 1
 2082  6354  6353 1
 2083  6354  6359 1
 2084  6360  6359 1
 2085  6360  6365 1
 2086  6366  6365 1
 2087  6366  6371 1
 2088  6372  6371 1
 2089  6372  6377 1
 2090  6378  6377 1
 2091  6378  6383 1
 2092  6384  6383 1
 2093  6384  6389 1
 2094  6390  6389 1
 2095  6390  6395 1
 2096  6396  6395 1
 2097  6396  6401 1
 2098  6402  6401 1
 2099  6402  6407 1
 2100  6408  6407 1
 2101  6408  6413 1
 2102  6414  6413 1
 2103  6414  6419 1
 2104  6420  6419 1
 2105  6420  6425 1
 2106  6426  6425 1
 2107  6426  6431 1
 2108  6432  6431 1
 2109  6432  6437 1
 2110  6438  6437 1
 2111  6438  6443 1
 2112  6444  6443 1
 2113  6444  6449 1
 2114  6450  6449 1
 2115  6450  6455 1
 2116  6456  6455 1
 2117  6456  6461 1
 2118  6462  6461 1
 2119  6462  6467 1
 2120  6468  6467 1
 2121  6468  6473 1
 2122  6474  6473 1
 2123  6474  6479 1
 2124  6480  6479 1
 2125  6486  6485 1
 2126  6486  6491 1
 2127  6492  6491 1
 2128  6492  6497 1
 2129  6498  6497 1
 2130  6498  6503 1
 2131  6504  6503 1
 2132  6504  6509 1
 2133  6510  6509 1
 2134  6510  6515 1
 2135  6516  6515 1
 2136  6516  6521 1
 2137  6522  6521 1
 2138  6522  6527 1
 2139  6528  6527 1
 2140  6528  6533 1
 2141  6534  6533 1
 2142  6534  6539 1
 2143  6540  6539 1
 2144  6540  6545 1
 2145  6546  6545 1
 2146  6546  6551 1
 2147  6552  6551 1
 2148  6552  6557 1
 2149  6558  6557 1
 2150  6558  6563 1
 2151  6564  6563 1
 2152  6564  6569 1
 2153  6570  6569 1
 2154  6570  6575 1
 2155  6576  6575 1
 2156  6576  6581 1
 2157  6582  6581 1
 2158  6582  6587 1
 2159  6588  6587 1
 2160  6588  6593 1
 2161  6594  6593 1
 2162  6594  6599 1
 2163  6600  6599 1
 2164  6600  6605 1
 2165  6606  6605 1
 2166  6606  6611 1
 2167  6612  6611 1
 2168  6612  6617 1
 2169  6618  6617 1
 2170  6618  6623 1
 2171  6624  6623 1
 2172  6624  6629 1
 2173  6630  6629 1
 2174  6630  6635 1
 2175  6636  6635 1
 2176  6636  6641 1
 2177  6642  6641 1
 2178  6642  6647 1
 2179  6648  6647 1
 2180  6648  6653 1
 2181  6654  6653 1
 2182  6654  6659 1
 2183  6660  6659 1
 2184  6666  6665 1
 2185  6666  6671 1
 2186  6672  6671 1
 2187  6672  6677 1
 2188  6678  6677 1
 2189  6678  6683 1
 2190  6684  6683 1
 2191  6684  6689 1
 2192  6690  6689 1
 2193  6690  6695 1
 2194  6696  6695 1
 2195  6696  6701 1
 2196  6702  6701 1
 2197  6702  6707 1
 2198  6708  6707 1
 2199  6708  6713 1
 2200  6714  6713 1
 2201  6714  6719 1
 2202  6720  6719 1
 2203  6720  6725 1
 2204  6726  6725 1
 2205  6726  6731 1
 2206  6732  6731 1
 2207  6732  6737 1
 2208  6738  6737 1
 2209  6738  6743 1
 2210  6744  6743 1
 2211  6744  6749 1
 2212  6750  6749 1
 2213  6750  6755 1
 2214  6756  6755 1
 2215  6756  6761 1
 2216  6762  6761 1
 2217  6762  6767 1
 2218  6768  6767 1
 2219  6768  6773 1
 2220  6774  6773 1
 2221  6774  6779 1
 2222  6780  6779 1
 2223  6780  6785 1
 2224  6786  6785 1
 2225  6786  6791 1
 2226  6792  6791 1
 2227  6792  6797 1
 2228  6798  6797 1
 2229  6798  6803 1
 2230  6804  6803 1
 2231  6804  6809 1
 2232  6810  6809 1
 2233  6810  6815 1
 2234  6816  6815 1
 2235  6816  6821 1
 2236  6822  6821 1
 2237  6822  6827 1
 2238  6828  6827 1
 2239  6828  6833 1
 2240  6834  6833 1
 2241  6834  6839 1
 2242  6840  6839 1
 2243  6846  6845 1
 2244  6846  6851 1
 2245  6852  6851 1
 2246  6852  6857 1
 2247  6858  6857 1
 2248  6858  6863 1
 2249  6864  6863 1
 2250  6864  6869 1
 2251  6870  6869 1
 2252  6870  6875 1
 2253  6876  6875 1
 2254  6876  6881 1
 2255  6882  6881 1
 2256  6882  6887 1
 2257  6888  6887 1
 2258  6888  6893 1
 2259  6894  6893 1
 2260  6894  6899 1
 2261  6900  6899 1
 2262  6900  6905 1
 2263  6906  6905 1
 2264  6906  6911 1
 2265  6912  6911 1
 2266  6912  6917 1
 2267  6918  6917 1
 2268  6918  6923 1
 2269  6924  6923 1
 2270  6924  6929 1
 2271  6930  6929 1
 2272  6930  6935 1
 2273  6936  6935 1
 2274  6936  6941 1
 2275  6942  6941 1
 2276  6942  6947 1
 2277  6948  6947 1
 2278  6948  6953 1
 2279  6954  6953 1
 2280  6954  6959 1
 2281  6960  6959 1
 2282  6960  6965 1
 2283  6966  6965 1
 2284  6966  6971 1
 2285  6972  6971 1
 2286  6972  6977 1
 2287  6978  6977 1
 2288  6978  6983 1
 2289  6984  6983 1
 2290  6984  6989 1
 2291  6990  6989 1
 2292  6990  6995 1
 2293  6996  6995 1
 2294  6996  7001 1
 2295  7002  7001 1
 2296  7002  7007 1
 2297  7008  7007 1
 2298  7008  7013 1
 2299  7014  7013 1
 2300  7014  7019 1
 2301  7020  7019 1
 2302  7026  7025 1
 2303  7026  7031 1
 2304  7032  7031 1
 2305  7032  7037 1
 2306  7038  7037 1
 2307  7038  7043 1
 2308  7044  7043 1
 2309  7044  7049 1
 2310  7050  7049 1
 2311  7050  7055 1
 2312  7056  7055 1
 2313  7056  7061 1
 2314  7062  7061 1
 2315  7062  7067 1
 2316  7068  7067 1
 2317  7068  7073 1
 2318  7074  7073 1
 2319  7074  7079 1
 2320  7080  7079 1
 2321  7080  7085 1
 2322  7086  7085 1
 2323  7086  7091 1
 2324  7092  7091 1
 2325  7092  7097 1
 2326  7098  7097 1
 2327  7098  7103 1
 2328  7104  7103 1
 2329  7104  7109 1
 2330  7110  7109 1
 2331  7110  7115 1
 2332  7116  7115 1
 2333  7116  7121 1
 2334  7122  7121 1
 2335  7122  7127 1
 2336  7128  7127 1
 2337  7128  7133 1
 2338  7134  7133 1
 2339  7134  7139 1
 2340  7140  7139 1
 2341  7140  7145 1
 2342  7146  7145 1
 2343  7146  7151 1
 2344  7152  7151 1
 2345  7152  7157 1
 2346  7158  7157 1
 2347  7158  7163 1
 2348  7164  7163 1
 2349  7164  7169 1
 2350  7170  7169 1
 2351  7170  7175 1
 2352  7176  7175 1
 2353  7176  7181 1
 2354  7182  7181 1
 2355  7182  7187 1
 2356  7188  7187 1
 2357  7188  7193 1
 2358  7194  7193 1
 2359  7194  7199 1
 2360  7200  7199 1
 2361  7206  7205 1
 2362  7206  7211 1
 2363  7212  7211 1
 2364  7212  7217 1
 2365  7218  7217 1
 2366  7218  7223 1
 2367  7224  7223 1
 2368  7224  7229 1
 2369  7230  7229 1
 2370  7230  7235 1
 2371  7236  7235 1
 2372  7236  7241 1
 2373  7242  7241 1
 2374  7242  7247 1
 2375  7248  7247 1
 2376  7248  7253 1
 2377  7254  7253 1
 2378  7254  7259 1
 2379  7260  7259 1
 2380  7260  7265 1
 2381  7266  7265 1
 2382  7266  7271 1
 2383  7272  7271 1
 2384  7272  7277 1
 2385  7278  7277 1
 2386  7278  7283 1
 2387  7284  7283 1
 2388  7284  7289 1
 2389  7290  7289 1
 2390  7290  7295 1
 2391  7296  7295 1
 2392  7296  7301 1
 2393  7302  7301 1
 2394  7302  7307 1
 2395  7308  7307 1
 2396  7308  7313 1
 2397  7314  7313 1
 2398  7314  7319 1
 2399  7320  7319 1
 2400  7320  7325 1
 2401  7326  7325 1
 2402  7326  7331 1
 2403  7332  7331 1
 2404  7332  7337 1
 2405  7338  7337 1
 2406  7338  7343 1
 2407  7344  7343 1
 2408  7344  7349 1
 2409  7350  7349 1
 2410  7350  7355 1
 2411  7356  7355 1
 2412  7356  7361 1
 2413  7362  7361 1
 2414  7362  7367 1
 2415  7368  7367 1
 2416  7368  7373 1
 2417  7374  7373 1
 2418  7374  7379 1
 2419  7380  7379 1
 2420  7386  7385 1
 2421  7386  7391 1
 2422  7392  7391 1
 2423  7392  7397 1
 2424  7398  7397 1
 2425  7398  7403 1
 2426  7404  7403 1
 2427  7404  7409 1
 2428  7410  7409 1
 2429  7410  7415 1
 2430  7416  7415 1
 2431  7416  7421 1
 2432  7422  7421 1
 2433  7422  7427 1
 2434  7428  7427 1
 2435  7428  7433 1
 2436  7434  7433 1
 2437  7434  7439 1
 2438  7440  7439 1
 2439  7440  7445 1
 2440  7446  7445 1
 2441  7446  7451 1
 2442  7452  7451 1
 2443  7452  7457 1
 2444  7458  7457 1
 2445  7458  7463 1
 2446  7464  7463 1
 2447  7464  7469 1
 2448  7470  7469 1
 2449  7470  7475 1
 2450  7476  7475 1
 2451  7476  7481 1
 2452  7482  7481 1
 2453  7482  7487 1
 2454  7488  7487 1
 2455  7488  7493 1
 2456  7494  7493 1
 2457  7494  7499 1
 2458  7500  7499 1
 2459  7500  7505 1
 2460  7506  7505 1
 2461  7506  7511 1
 2462  7512  7511 1
 2463  7512  7517 1
 2464  7518  7517 1
 2465  7518  7523 1
 2466  7524  7523 1
 2467  7524  7529 1
 2468  7530  7529 1
 2469  7530  7535 1
 2470  7536  7535 1
 2471  7536  7541 1
 2472  7542  7541 1
 2473  7542  7547 1
 2474  7548  7547 1
 2475  7548  7553 1
 2476  7554  7553 1
 2477  7554  7559 1
 2478  7560  7559 1
 2479  7566  7565 1
 2480  7566  7571 1
 2481  7572  7571 1
 2482  7572  7577 1
 2483  7578  7577 1
 2484  7578  7583 1
 2485  7584  7583 1
 2486  7584  7589 1
 2487  7590  7589 1
 2488  7590  7595 1
 2489  7596  7595 1
 2490  7596  7601 1
 2491  7602  7601 1
 2492  7602  7607 1
 2493  7608  7607 1
 2494  7608  7613 1
 2495  7614  7613 1
 2496  7614  7619 1
 2497  7620  7619 1
 2498  7620  7625 1
 2499  7626  7625 1
 2500  7626  7631 1
 2501  7632  7631 1
 2502  7632  7637 1
 2503  7638  7637 1
 2504  7638  7643 1
 2505  7644  7643 1
 2506  7644  7649 1
 2507  7650  7649 1
 2508  7650  7655 1
 2509  7656  7655 1
 2510  7656  7661 1
 2511  7662  7661 1
 2512  7662  7667 1
 2513  7668  7667 1
 2514  7668  7673 1
 2515  7674  7673 1
 2516  7674  7679 1
 2517  7680  7679 1
 2518  7680  7685 1
 2519  7686  7685 1
 2520  7686  7691 1
 2521  7692  7691 1
 2522  7692  7697 1
 2523  7698  7697 1
 2524  7698  7703 1
 2525  7704  7703 1
 2526  7704  7709 1
 2527  7710  7709 1
 2528  7710  7715 1
 2529  7716  7715 1
 2530  7716  7721 1
 2531  7722  7721 1
 2532  7722  7727 1
 2533  7728  7727 1
 2534  7728  7733 1
 2535  7734  7733 1
 2536  7734  7739 1
 2537  7740  7739 1
 2538  7746  7745 1
 2539  7746  7751 1
 2540  7752  7751 1
 2541  7752  7757 1
 2542  7758  7757 1
 2543  7758  7763 1
 2544  7764  7763 1
 2545  7764  7769 1
 2546  7770  7769 1
 2547  7770  7775 1
 2548  7776  7775 1
 2549  7776  7781 1
 2550  7782  7781 1
 2551  7782  7787 1
 2552  7788  7787 1
 2553  7788  7793 1
 2554  7794  7793 1
 2555  7794  7799 1
 2556  7800  7799 1
 2557  7800  7805 1
 2558  7806  7805 1
 2559  7806  7811 1
 2560  7812  7811 1
 2561  7812  7817 1
 2562  7818  7817 1
 2563  7818  7823 1
 2564  7824  7823 1
 2565  7824  7829 1
 2566  7830  7829 1
 2567  7830  7835 1
 2568  7836  7835 1
 2569  7836  7841 1
 2570  7842  7841 1
 2571  7842  7847 1
 2572  7848  7847 1
 2573  7848  7853 1
 2574  7854  7853 1
 2575  7854  7859 1
 2576  7860  7859 1
 2577  7860  7865 1
 2578  7866  7865 1
 2579  7866  7871 1
 2580  7872  7871 1
 2581  7872  7877 1
 2582  7878  7877 1
 2583  7878  7883 1
 2584  7884  7883 1
 2585  7884  7889 1
 2586  7890  7889 1
 2587  7890  7895 1
 2588  7896  7895 1
 2589  7896  7901 1
 2590  7902  7901 1
 2591  7902  7907 1
 2592  7908  7907 1
 2593  7908  7913 1
 2594  7914  7913 1
 2595  7914  7919 1
 2596  7920  7919 1
 2597  7926  7925 1
 2598  7926  7931 1
 2599  7932  7931 1
 2600  7932  7937 1
 2601  7938  7937 1
 2602  7938  7943 1
 2603  7944  7943 1
 2604  7944  7949 1
 2605  7950  7949 1
 2606  7950  7955 1
 2607  7956  7955 1
 2608  7956  7961 1
 2609  7962  7961 1
 2610  7962  7967 1
 2611  7968  7967 1
 2612  7968  7973 1
 2613  7974  7973 1
 2614  7974  7979 1
 2615  7980  7979 1
 2616  7980  7985 1
 2617  7986  7985 1
 2618  7986  7991 1
 2619  7992  7991 1
 2620  7992  7997 1
 2621  7998  7997 1
 2622  7998  8003 1
 2623  8004  8003 1
 2624  8004  8009 1
 2625  8010  8009 1
 2626  8010  8015 1
 2627  8016  8015 1
 2628  8016  8021 1
 2629  8022  8021 1
 2630  8022  8027 1
 2631  8028  8027 1
 2632  8028  8033 1
 2633  8034  8033 1
 2634  8034  8039 1
 2635  8040  8039 1
 2636  8040  8045 1
 2637  8046  8045 1
 2638  8046  8051 1
 2639  8052  8051 1
 2640  8052  8057 1
 2641  8058  8057 1
 2642  8058  8063 1
 2643  8064  8063 1
 2644  8064  8069 1
 2645  8070  8069 1
 2646  8070  8075 1
 2647  8076  8075 1
 2648  8076  8081 1
 2649  8082  8081 1
 2650  8082  8087 1
 2651  8088  8087 1
 2652  8088  8093 1
 2653  8094  8093 1
 2654  8094  8099 1
 2655  8100  8099 1
 2656  8106  8105 1
 2657  8106  8111 1
 2658  8112  8111 1
 2659  8112  8117 1
 2660  8118  8117 1
 2661  8118  8123 1
 2662  8124  8123 1
 2663  8124  8129 1
 2664  8130  8129 1
 2665  8130  8135 1
 2666  8136  8135 1
 2667  8136  8141 1
 2668  8142  8141 1
 2669  8142  8147 1
 2670  8148  8147 1
 2671  8148  8153 1
 2672  8154  8153 1
 2673  8154  8159 1
 2674  8160  8159 1
 2675  8160  8165 1
 2676  8166  8165 1
 2677  8166  8171 1
 2678  8172  8171 1
 2679  8172  8177 1
 2680  8178  8177 1
 2681  8178  8183 1
 2682  8184  8183 1
 2683  8184  8189 1
 2684  8190  8189 1
 2685  8190  8195 1
 2686  8196  8195 1
 2687  8196  8201 1
 2688  8202  8201 1
 2689  8202  8207 1
 2690  8208  8207 1
 2691  8208  8213 1
 2692  8214  8213 1
 2693  8214  8219 1
 2694  8220  8219 1
 2695  8220  8225 1
 2696  8226  8225 1
 2697  8226  8231 1
 2698  8232  8231 1
 2699  8232  8237 1
 2700  8238  8237 1
 2701  8238  8243 1
 2702  8244  8243 1
 2703  8244  8249 1
 2704  8250  8249 1
 2705  8250  8255 1
 2706  8256  8255 1
 2707  8256  8261 1
 2708  8262  8261 1
 2709  8262  8267 1
 2710  8268  8267 1
 2711  8268  8273 1
 2712  8274  8273 1
 2713  8274  8279 1
 2714  8280  8279 1
 2715  8286  8285 1
 2716  8286  8291 1
 2717  8292  8291 1
 2718  8292  8297 1
 2719  8298  8297 1
 2720  8298  8303 1
 2721  8304  8303 1
 2722  8304  8309 1
 2723  8310  8309 1
 2724  8310  8315 1
 2725  8316  8315 1
 2726  8316  8321 1
 2727  8322  8321 1
 2728  8322  8327 1
 2729  8328  8327 1
 2730  8328  8333 1
 2731  8334  8333 1
 2732  8334  8339 1
 2733  8340  8339 1
 2734  8340  8345 1
 2735  8346  8345 1
 2736  8346  8351 1
 2737  8352  8351 1
 2738  8352  8357 1
 2739  8358  8357 1
 2740  8358  8363 1
 2741  8364  8363 1
 2742  8364  8369 1
 2743  8370  8369 1
 2744  8370  8375 1
 2745  8376  8375 1
 2746  8376  8381 1
 2747  8382  8381 1
 2748  8382  8387 1
 2749  8388  8387 1
 2750  8388  8393 1
 2751  8394  8393 1
 2752  8394  8399 1
 2753  8400  8399 1
 2754  8400  8405 1
 2755  8406  8405 1
 2756  8406  8411 1
 2757  8412  8411 1
 2758  8412  8417 1
 2759  8418  8417 1
 2760  8418  8423 1
 2761  8424  8423 1
 2762  8424  8429 1
 2763  8430  8429 1
 2764  8430  8435 1
 2765  8436  8435 1
 2766  8436  8441 1
 2767  8442  8441 1
 2768  8442  8447 1
 2769  8448  8447 1
 2770  8448  8453 1
 2771  8454  8453 1
 2772  8454  8459 1
 2773  8460  8459 1
 2774  8466  8465 1
 2775  8466  8471 1
 2776  8472  8471 1
 2777  8472  8477 1
 2778  8478  8477 1
 2779  8478  8483 1
 2780  8484  8483 1
 2781  8484  8489 1
 2782  8490  8489 1
 2783  8490  8495 1
 2784  8496  8495 1
 2785  8496  8501 1
 2786  8502  8501 1
 2787  8502  8507 1
 2788  8508  8507 1
 2789  8508  8513 1
 2790  8514  8513 1
 2791  8514  8519 1
 2792  8520  8519 1
 2793  8520  8525 1
 2794  8526  8525 1
 2795  8526  8531 1
 2796  8532  8531 1
 2797  8532  8537 1
 2798  8538  8537 1
 2799  8538  8543 1
 2800  8544  8543 1
 2801  8544  8549 1
 2802  8550  8549 1
 2803  8550  8555 1
 2804  8556  8555 1
 2805  8556  8561 1
 2806  8562  8561 1
 2807  8562  8567 1
 2808  8568  8567 1
 2809  8568  8573 1
 2810  8574  8573 1
 2811  8574  8579 1
 2812  8580  8579 1
 2813  8580  8585 1
 2814  8586  8585 1
 2815  8586  8591 1
 2816  8592  8591 1
 2817  8592  8597 1
 2818  8598  8597 1
 2819  8598  8603 1
 2820  8604  8603 1
 2821  8604  8609 1
 2822  8610  8609 1
 2823  8610  8615 1
 2824  8616  8615 1
 2825  8616  8621 1
 2826  8622  8621 1
 2827  8622  8627 1
 2828  8628  8627 1
 2829  8628  8633 1
 2830  8634  8633 1
 2831  8634  8639 1
 2832  8640  8639 1
 2833  8646  8645 1
 2834  8646  8651 1
 2835  8652  8651 1
 2836  8652  8657 1
 2837  8658  8657 1
 2838  8658  8663 1
 2839  8664  8663 1
 2840  8664  8669 1
 2841  8670  8669 1
 2842  8670  8675 1
 2843  8676  8675 1
 2844  8676  8681 1
 2845  8682  8681 1
 2846  8682  8687 1
 2847  8688  8687 1
 2848  8688  8693 1
 2849  8694  8693 1
 2850  8694  8699 1
 2851  8700  8699 1
 2852  8700  8705 1
 2853  8706  8705 1
 2854  8706  8711 1
 2855  8712  8711 1
 2856  8712  8717 1
 2857  8718  8717 1
 2858  8718  8723 1
 2859  8724  8723 1
 2860  8724  8729 1
 2861  8730  8729 1
 2862  8730  8735 1
 2863  8736  8735 1
 2864  8736  8741 1
 2865  8742  8741 1
 2866  8742  8747 1
 2867  8748  8747 1
 2868  8748  8753 1
 2869  8754  8753 1
 2870  8754  8759 1
 2871  8760  8759 1
 2872  8760  8765 1
 2873  8766  8765 1
 2874  8766  8771 1
 2875  8772  8771 1
 2876  8772  8777 1
 2877  8778  8777 1
 2878  8778  8783 1
 2879  8784  8783 1
 2880  8784  8789 1
 2881  8790  8789 1
 2882  8790  8795 1
 2883  8796  8795 1
 2884  8796  8801 1
 2885  8802  8801 1
 2886  8802  8807 1
 2887  8808  8807 1
 2888  8808  8813 1
 2889  8814  8813 1
 2890  8814  8819 1
 2891  8820  8819 1
 2892  8826  8825 1
 2893  8826  8831 1
 2894  8832  8831 1
 2895  8832  8837 1
 2896  8838  8837 1
 2897  8838  8843 1
 2898  8844  8843 1
 2899  8844  8849 1
 2900  8850  8849 1
 2901  8850  8855 1
 2902  8856  8855 1
 2903  8856  8861 1
 2904  8862  8861 1
 2905  8862  8867 1
 2906  8868  8867 1
 2907  8868  8873 1
 2908  8874  8873 1
 2909  8874  8879 1
 2910  8880  8879 1
 2911  8880  8885 1
 2912  8886  8885 1
 2913  8886  8891 1
 2914  8892  8891 1
 2915  8892  8897 1
 2916  8898  8897 1
 2917  8898  8903 1
 2918  8904  8903 1
 2919  8904  8909 1
 2920  8910  8909 1
 2921  8910  8915 1
 2922  8916  8915 1
 2923  8916  8921 1
 2924  8922  8921 1
 2925  8922  8927 1
 2926  8928  8927 1
 2927  8928  8933 1
 2928  8934  8933 1
 2929  8934  8939 1
 2930  8940  8939 1
 2931  8940  8945 1
 2932  8946  8945 1
 2933  8946  8951 1
 2934  8952  8951 1
 2935  8952  8957 1
 2936  8958  8957 1
 2937  8958  8963 1
 2938  8964  8963 1
 2939  8964  8969 1
 2940  8970  8969 1
 2941  8970  8975 1
 2942  8976  8975 1
 2943  8976  8981 1
 2944  8982  8981 1
 2945  8982  8987 1
 2946  8988  8987 1
 2947  8988  8993 1
 2948  8994  8993 1
 2949  8994  8999 1
 2950  9000  8999 1
 2951  9006  9005 1
 2952  9006  9011 1
 2953  9012  9011 1
 2954  9012  9017 1
 2955  9018  9017 1
 2956  9018  9023 1
 2957  9024  9023 1
 2958  9024  9029 1
 2959  9030  9029 1
 2960  9030  9035 1
 2961  9036  9035 1
 2962  9036  9041 1
 2963  9042  9041 1
 2964  9042  9047 1
 2965  9048  9047 1
 2966  9048  9053 1
 2967  9054  9053 1
 2968  9054  9059 1
 2969  9060  9059 1
 2970  9060  9065 1
 2971  9066  9065 1
 2972  9066  9071 1
 2973  9072  9071 1
 2974  9072  9077 1
 2975  9078  9077 1
 2976  9078  9083 1
 2977  9084  9083 1
 2978  9084  9089 1
 2979  9090  9089 1
 2980  9090  9095 1
 2981  9096  9095 1
 2982  9096  9101 1
 2983  9102  9101 1
 2984  9102  9107 1
 2985  9108  9107 1
 2986  9108  9113 1
 2987  9114  9113 1
 2988  9114  9119 1
 2989  9120  9119 1
 2990  9120  9125 1
 2991  9126  9125 1
 2992  9126  9131 1
 2993  9132  9131 1
 2994  9132  9137 1
 2995  9138  9137 1
 2996  9138  9143 1
 2997  9144  9143 1
 2998  9144  9149 1
 2999  9150  9149 1
 3000  9150  9155 1
 3001  9156  9155 1
 3002  9156  9161 1
 3003  9162  9161 1
 3004  9162  9167 1
 3005  9168  9167 1
 3006  9168  9173 1
 3007  9174  9173 1
 3008  9174  9179 1
 3009  9180  9179 1
 3010  9186  9185 1
 3011  9186  9191 1
 3012  9192  9191 1
 3013  9192  9197 1
 3014  9198  9197 1
 3015  9198  9203 1
 3016  9204  9203 1
 3017  9204  9209 1
 3018  9210  9209 1
 3019  9210  9215 1
 3020  9216  9215 1
 3021  9216  9221 1
 3022  9222  9221 1
 3023  9222  9227 1
 3024  9228  9227 1
 3025  9228  9233 1
 3026  9234  9233 1
 3027  9234  9239 1
 3028  9240  9239 1
 3029  9240  9245 1
 3030  9246  9245 1
 3031  9246  9251 1
 3032  9252  9251 1
 3033  9252  9257 1
 3034  9258  9257 1
 3035  9258  9263 1
 3036  9264  9263 1
 3037  9264  9269 1
 3038  9270  9269 1
 3039  9270  9275 1
 3040  9276  9275 1
 3041  9276  9281 1
 3042  9282  9281 1
 3043  9282  9287 1
 3044  9288  9287 1
 3045  9288  9293 1
 3046  9294  9293 1
 3047  9294  9299 1
 3048  9300  9299 1
 3049  9300  9305 1
 3050  9306  9305 1
 3051  9306  9311 1
 3052  9312  9311 1
 3053  9312  9317 1
 3054  9318  9317 1
 3055  9318  9323 1
 3056  9324  9323 1
 3057  9324  9329 1
 3058  9330  9329 1
 3059  9330  9335 1
 3060  9336  9335 1
 3061  9336  9341 1
 3062  9342  9341 1
 3063  9342  9347 1
 3064  9348  9347 1
 3065  9348  9353 1
 3066  9354  9353 1
 3067  9354  9359 1
 3068  9360  9359 1
 3069  9366  9365 1
 3070  9366  9371 1
 3071  9372  9371 1
 3072  9372  9377 1
 3073  9378  9377 1
 3074  9378  9383 1
 3075  9384  9383 1
 3076  9384  9389 1
 3077  9390  9389 1
 3078  9390  9395 1
 3079  9396  9395 1
 3080  9396  9401 1
 3081  9402  9401 1
 3082  9402  9407 1
 3083  9408  9407 1
 3084  9408  9413 1
 3085  9414  9413 1
 3086  9414  9419 1
 3087  9420  9419 1
 3088  9420  9425 1
 3089  9426  9425 1
 3090  9426  9431 1
 3091  9432  9431 1
 3092  9432  9437 1
 3093  9438  9437 1
 3094  9438  9443 1
 3095  9444  9443 1
 3096  9444  9449 1
 3097  9450  9449 1
 3098  9450  9455 1
 3099  9456  9455 1
 3100  9456  9461 1
 3101  9462  9461 1
 3102  9462  9467 1
 3103  9468  9467 1
 3104  9468  9473 1
 3105  9474  9473 1
 3106  9474  9479 1
 3107  9480  9479 1
 3108  9480  9485 1
 3109  9486  9485 1
 3110  9486  9491 1
 3111  9492  9491 1
 3112  9492  9497 1
 3113  9498  9497 1
 3114  9498  9503 1
 3115  9504  9503 1
 3116  9504  9509 1
 3117  9510  9509 1
 3118  9510  9515 1
 3119  9516  9515 1
 3120  9516  9521 1
 3121  9522  9521 1
 3122  9522  9527 1
 3123  9528  9527 1
 3124  9528  9533 1
 3125  9534  9533 1
 3126  9534  9539 1
 3127  9540  9539 1
 3128  9546  9545 1
 3129  9546  9551 1
 3130  9552  9551 1
 3131  9552  9557 1
 3132  9558  9557 1
 3133  9558  9563 1
 3134  9564  9563 1
 3135  9564  9569 1
 3136  9570  9569 1
 3137  9570  9575 1
 3138  9576  9575 1
 3139  9576  9581 1
 3140  9582  9581 1
 3141  9582  9587 1
 3142  9588  9587 1
 3143  9588  9593 1
 3144  9594  9593 1
 3145  9594  9599 1
 3146  9600  9599 1
 3147  9600  9605 1
 3148  9606  9605 1
 3149  9606  9611 1
 3150  9612  9611 1
 3151  9612  9617 1
 3152  9618  9617 1
 3153  9618  9623 1
 3154  9624  9623 1
 3155  9624  9629 1
 3156  9630  9629 1
 3157  9630  9635 1
 3158  9636  9635 1
 3159  9636  9641 1
 3160  9642  9641 1
 3161  9642  9647 1
 3162  9648  9647 1
 3163  9648  9653 1
 3164  9654  9653 1
 3165  9654  9659 1
 3166  9660  9659 1
 3167  9660  9665 1
 3168  9666  9665 1
 3169  9666  9671 1
 3170  9672  9671 1
 3171  9672  9677 1
 3172  9678  9677 1
 3173  9678  9683 1
 3174  9684  9683 1
 3175  9684  9689 1
 3176  9690  9689 1
 3177  9690  9695 1
 3178  9696  9695 1
 3179  9696  9701 1
 3180  9702  9701 1
 3181  9702  9707 1
 3182  9708  9707 1
 3183  9708  9713 1
 3184  9714  9713 1
 3185  9714  9719 1
 3186  9720  9719 1
 3187  9726  9725 1
 3188  9726  9731 1
 3189  9732  9731 1
 3190  9732  9737 1
 3191  9738  9737 1
 3192  9738  9743 1
 3193  9744  9743 1
 3194  9744  9749 1
 3195  9750  9749 1
 3196  9750  9755 1
 3197  9756  9755 1
 3198  9756  9761 1
 3199  9762  9761 1
 3200  9762  9767 1
 3201  9768  9767 1
 3202  9768  9773 1
 3203  9774  9773 1
 3204  9774  9779 1
 3205  9780  9779 1
 3206  9780  9785 1
 3207  9786  9785 1
 3208  9786  9791 1
 3209  9792  9791 1
 3210  9792  9797 1
 3211  9798  9797 1
 3212  9798  9803 1
 3213  9804  9803 1
 3214  9804  9809 1
 3215  9810  9809 1
 3216  9810  9815 1
 3217  9816  9815 1
 3218  9816  9821 1
 3219  9822  9821 1
 3220  9822  9827 1
 3221  9828  9827 1
 3222  9828  9833 1
 3223  9834  9833 1
 3224  9834  9839 1
 3225  9840  9839 1
 3226  9840  9845 1
 3227  9846  9845 1
 3228  9846  9851 1
 3229  9852  9851 1
 3230  9852  9857 1
 3231  9858  9857 1
 3232  9858  9863 1
 3233  9864  9863 1
 3234  9864  9869 1
 3235  9870  9869 1
 3236  9870  9875 1
 3237  9876  9875 1
 3238  9876  9881 1
 3239  9882  9881 1
 3240  9882  9887 1
 3241  9888  9887 1
 3242  9888  9893 1
 3243  9894  9893 1
 3244  9894  9899 1
 3245  9900  9899 1
 3246  9906  9905 1
 3247  9906  9911 1
 3248  9912  9911 1
 3249  9912  9917 1
 3250  9918  9917 1
 3251  9918  9923 1
 3252  9924  9923 1
 3253  9924  9929 1
 3254  9930  9929 1
 3255  9930  9935 1
 3256  9936  9935 1
 3257  9936  9941 1
 3258  9942  9941 1
 3259  9942  9947 1
 3260  9948  9947 1
 3261  9948  9953 1
 3262  9954  9953 1
 3263  9954  9959 1
 3264  9960  9959 1
 3265  9960  9965 1
 3266  9966  9965 1
 3267  9966  9971 1
 3268  9972  9971 1
 3269  9972  9977 1
 3270  9978  9977 1
 3271  9978  9983 1
 3272  9984  9983 1
 3273  9984  9989 1
 3274  9990  9989 1
 3275  9990  9995 1
 3276  9996  9995 1
 3277  9996 10001 1
 3278 10002 10001 1
 3279 10002 10007 1
 3280 10008 10007 1
 3281 10008 10013 1
 3282 10014 10013 1
 3283 10014 10019 1
 3284 10020 10019 1
 3285 10020 10025 1
 3286 10026 10025 1
 3287 10026 10031 1
 3288 10032 10031 1
 3289 10032 10037 1
 3290 10038 10037 1
 3291 10038 10043 1
 3292 10044 10043 1
 3293 10044 10049 1
 3294 10050 10049 1
 3295 10050 10055 1
 3296 10056 10055 1
 3297 10056 10061 1
 3298 10062 10061 1
 3299 10062 10067 1
 3300 10068 10067 1
 3301 10068 10073 1
 3302 10074 10073 1
 3303 10074 10079 1
 3304 10080 10079 1
 3305 10086 10085 1
 3306 10086 10091 1
 3307 10092 10091 1
 3308 10092 10097 1
 3309 10098 10097 1
 3310 10098 10103 1
 3311 10104 10103 1
 3312 10104 10109 1
 3313 10110 10109 1
 3314 10110 10115 1
 3315 10116 10115 1
 3316 10116 10121 1
 3317 10122 10121 1
 3318 10122 10127 1
 3319 10128 10127 1
 3320 10128 10133 1
 3321 10134 10133 1
 3322 10134 10139 1
 3323 10140 10139 1
 3324 10140 10145 1
 3325 10146 10145 1
 3326 10146 10151 1
 3327 10152 10151 1
 3328 10152 10157 1
 3329 10158 10157 1
 3330 10158 10163 1
 3331 10164 10163 1
 3332 10164 10169 1
 3333 10170 10169 1
 3334 10170 10175 1
 3335 10176 10175 1
 3336 10176 10181 1
 3337 10182 10181 1
 3338 10182 10187 1
 3339 10188 10187 1
 3340 10188 10193 1
 3341 10194 10193 1
 3342 10194 10199 1
 3343 10200 10199 1
 3344 10200 10205 1
 3345 10206 10205 1
 3346 10206 10211 1
 3347 10212 10211 1
 3348 10212 10217 1
 3349 10218 10217 1
 3350 10218 10223 1
 3351 10224 10223 1
 3352 10224 10229 1
 3353 10230 10229 1
 3354 10230 10235 1
 3355 10236 10235 1
 3356 10236 10241 1
 3357 10242 10241 1
 3358 10242 10247 1
 3359 10248 10247 1
 3360 10248 10253 1
 3361 10254 10253 1
 3362 10254 10259 1
 3363 10260 10259 1
 3364 10266 10265 1
 3365 10266 10271 1
 3366 10272 10271 1
 3367 10272 10277 1
 3368 10278 10277 1
 3369 10278 10283 1
 3370 10284 10283 1
 3371 10284 10289 1
 3372 10290 10289 1
 3373 10290 10295 1
 3374 10296 10295 1
 3375 10296 10301 1
 3376 10302 10301 1
 3377 10302 10307 1
 3378 10308 10307 1
 3379 10308 10313 1
 3380 10314 10313 1
 3381 10314 10319 1
 3382 10320 10319 1
 3383 10320 10325 1
 3384 10326 10325 1
 3385 10326 10331 1
 3386 10332 10331 1
 3387 10332 10337 1
 3388 10338 10337 1
 3389 10338 10343 1
 3390 10344 10343 1
 3391 10344 10349 1
 3392 10350 10349 1
 3393 10350 10355 1
 3394 10356 10355 1
 3395 10356 10361 1
 3396 10362 10361 1
 3397 10362 10367 1
 3398 10368 10367 1
 3399 10368 10373 1
 3400 10374 10373 1
 3401 10374 10379 1
 3402 10380 10379 1
 3403 10380 10385 1
 3404 10386 10385 1
 3405 10386 10391 1
 3406 10392 10391 1
 3407 10392 10397 1
 3408 10398 10397 1
 3409 10398 10403 1
 3410 10404 10403 1
 3411 10404 10409 1
 3412 10410 10409 1
 3413 10410 10415 1
 3414 10416 10415 1
 3415 10416 10421 1
 3416 10422 10421 1
 3417 10422 10427 1
 3418 10428 10427 1
 3419 10428 10433 1
 3420 10434 10433 1
 3421 10434 10439 1
 3422 10440 10439 1
 3423 10446 10445 1
 3424 10446 10451 1
 3425 10452 10451 1
 3426 10452 10457 1
 3427 10458 10457 1
 3428 10458 10463 1
 3429 10464 10463 1
 3430 10464 10469 1
 3431 10470 10469 1
 3432 10470 10475 1
 3433 10476 10475 1
 3434 10476 10481 1
 3435 10482 10481 1
 3436 10482 10487 1
 3437 10488 10487 1
 3438 10488 10493 1
 3439 10494 10493 1
 3440 10494 10499 1
 3441 10500 10499 1
 3442 10500 10505 1
 3443 10506 10505 1
 3444 10506 10511 1
 3445 10512 10511 1
 3446 10512 10517 1
 3447 10518 10517 1
 3448 10518 10523 1
 3449 10524 10523 1
 3450 10524 10529 1
 3451 10530 10529 1
 3452 10530 10535 1
 3453 10536 10535 1
 3454 10536 10541 1
 3455 10542 10541 1
 3456 10542 10547 1
 3457 10548 10547 1
 3458 10548 10553 1
 3459 10554 10553 1
 3460 10554 10559 1
 3461 10560 10559 1
 3462 10560 10565 1
 3463 10566 10565 1
 3464 10566 10571 1
 3465 10572 10571 1
 3466 10572 10577 1
 3467 10578 10577 1
 3468 10578 10583 1
 3469 10584 10583 1
 3470 10584 10589 1
 3471 10590 10589 1
 3472 10590 10595 1
 3473 10596 10595 1
 3474 10596 10601 1
 3475 10602 10601 1
 3476 10602 10607 1
 3477 10608 10607 1
 3478 10608 10613 1
 3479 10614 10613 1
 3480 10614 10619 1
 3481 10620 10619 1
 3482 10626 10625 1
 3483 10626 10631 1
 3484 10632 10631 1
 3485 10632 10637 1
 3486 10638 10637 1
 3487 10638 10643 1
 3488 10644 10643 1
 3489 10644 10649 1
 3490 10650 10649 1
 3491 10650 10655 1
 3492 10656 10655 1
 3493 10656 10661 1
 3494 10662 10661 1
 3495 10662 10667 1
 3496 10668 10667 1
 3497 10668 10673 1
 3498 10674 10673 1
 3499 10674 10679 1
 3500 10680 10679 1
 3501 10680 10685 1
 3502 10686 10685 1
 3503 10686 10691 1
 3504 10692 10691 1
 3505 10692 10697 1
 3506 10698 10697 1
 3507 10698 10703 1
 3508 10704 10703 1
 3509 10704 10709 1
 3510 10710 10709 1
 3511 10710 10715 1
 3512 10716 10715 1
 3513 10716 10721 1
 3514 10722 10721 1
 3515 10722 10727 1
 3516 10728 10727 1
 3517 10728 10733 1
 3518 10734 10733 1
 3519 10734 10739 1
 3520 10740 10739 1
 3521 10740 10745 1
 3522 10746 10745 1
 3523 10746 10751 1
 3524 10752 10751 1
 3525 10752 10757 1
 3526 10758 10757 1
 3527 10758 10763 1
 3528 10764 10763 1
 3529 10764 10769 1
 3530 10770 10769 1
 3531 10770 10775 1
 3532 10776 10775 1
 3533 10776 10781 1
 3534 10782 10781 1
 3535 10782 10787 1
 3536 10788 10787 1
 3537 10788 10793 1
 3538 10794 10793 1
 3539 10794 10799 1
 3540 10800 10799 1
 3541 10806 10805 1
 3542 10806 10811 1
 3543 10812 10811 1
 3544 10812 10817 1
 3545 10818 10817 1
 3546 10818 10823 1
 3547 10824 10823 1
 3548 10824 10829 1
 3549 10830 10829 1
 3550 10830 10835 1
 3551 10836 10835 1
 3552 10836 10841 1
 3553 10842 10841 1
 3554 10842 10847 1
 3555 10848 10847 1
 3556 10848 10853 1
 3557 10854 10853 1
 3558 10854 10859 1
 3559 10860 10859 1
 3560 10860 10865 1
 3561 10866 10865 1
 3562 10866 10871 1
 3563 10872 10871 1
 3564 10872 10877 1
 3565 10878 10877 1
 3566 10878 10883 1
 3567 10884 10883 1
 3568 10884 10889 1
 3569 10890 10889 1
 3570 10890 10895 1
 3571 10896 10895 1
 3572 10896 10901 1
 3573 10902 10901 1
 3574 10902 10907 1
 3575 10908 10907 1
 3576 10908 10913 1
 3577 10914 10913 1
 3578 10914 10919 1
 3579 10920 10919 1
 3580 10920 10925 1
 3581 10926 10925 1
 3582 10926 10931 1
 3583 10932 10931 1
 3584 10932 10937 1
 3585 10938 10937 1
 3586 10938 10943 1
 3587 10944 10943 1
 3588 10944 10949 1
 3589 10950 10949 1
 3590 10950 10955 1
 3591 10956 10955 1
 3592 10956 10961 1
 3593 10962 10961 1
 3594 10962 10967 1
 3595 10968 10967 1
 3596 10968 10973 1
 3597 10974 10973 1
 3598 10974 10979 1
 3599 10980 10979 1
 3600 10986 10985 1
 3601 10986 10991 1
 3602 10992 10991 1
 3603 10992 10997 1
 3604 10998 10997 1
 3605 10998 11003 1
 3606 11004 11003 1
 3607 11004 11009 1
 3608 11010 11009 1
 3609 11010 11015 1
 3610 11016 11015 1
 3611 11016 11021 1
 3612 11022 11021 1
 3613 11022 11027 1
 3614 11028 11027 1
 3615 11028 11033 1
 3616 11034 11033 1
 3617 11034 11039 1
 3618 11040 11039 1
 3619 11040 11045 1
 3620 11046 11045 1
 3621 11046 11051 1
 3622 11052 11051 1
 3623 11052 11057 1
 3624 11058 11057 1
 3625 11058 11063 1
 3626 11064 11063 1
 3627 11064 11069 1
 3628 11070 11069 1
 3629 11070 11075 1
 3630 11076 11075 1
 3631 11076 11081 1
 3632 11082 11081 1
 3633 11082 11087 1
 3634 11088 11087 1
 3635 11088 11093 1
 3636 11094 11093 1
 3637 11094 11099 1
 3638 11100 11099 1
 3639 11100 11105 1
 3640 11106 11105 1
 3641 11106 11111 1
 3642 11112 11111 1
 3643 11112 11117 1
 3644 11118 11117 1
 3645 11118 11123 1
 3646 11124 11123 1
 3647 11124 11129 1
 3648 11130 11129 1
 3649 11130 11135 1
 3650 11136 11135 1
 3651 11136 11141 1
 3652 11142 11141 1
 3653 11142 11147 1
 3654 11148 11147 1
 3655 11148 11153 1
 3656 11154 11153 1
 3657 11154 11159 1
 3658 11160 11159 1
 3659 11166 11165 1
 3660 11166 11171 1
 3661 11172 11171 1
 3662 11172 11177 1
 3663 11178 11177 1
 3664 11178 11183 1
 3665 11184 11183 1
 3666 11184 11189 1
 3667 11190 11189 1
 3668 11190 11195 1
 3669 11196 11195 1
 3670 11196 11201 1
 3671 11202 11201 1
 3672 11202 11207 1
 3673 11208 11207 1
 3674 11208 11213 1
 3675 11214 11213 1
 3676 11214 11219 1
 3677 11220 11219 1
 3678 11220 11225 1
 3679 11226 11225 1
 3680 11226 11231 1
 3681 11232 11231 1
 3682 11232 11237 1
 3683 11238 11237 1
 3684 11238 11243 1
 3685 11244 11243 1
 3686 11244 11249 1
 3687 11250 11249 1
 3688 11250 11255 1
 3689 11256 11255 1
 3690 11256 11261 1
 3691 11262 11261 1
 3692 11262 11267 1
 3693 11268 11267 1
 3694 11268 11273 1
 3695 11274 11273 1
 3696 11274 11279 1
 3697 11280 11279 1
 3698 11280 11285 1
 3699 11286 11285 1
 3700 11286 11291 1
 3701 11292 11291 1
 3702 11292 11297 1
 3703 11298 11297 1
 3704 11298 11303 1
 3705 11304 11303 1
 3706 11304 11309 1
 3707 11310 11309 1
 3708 11310 11315 1
 3709 11316 11315 1
 3710 11316 11321 1
 3711 11322 11321 1
 3712 11322 11327 1
 3713 11328 11327 1
 3714 11328 11333 1
 3715 11334 11333 1
 3716 11334 11339 1
 3717 11340 11339 1
 3718 11346 11345 1
 3719 11346 11351 1
 3720 11352 11351 1
 3721 11352 11357 1
 3722 11358 11357 1
 3723 11358 11363 1
 3724 11364 11363 1
 3725 11364 11369 1
 3726 11370 11369 1
 3727 11370 11375 1
 3728 11376 11375 1
 3729 11376 11381 1
 3730 11382 11381 1
 3731 11382 11387 1
 3732 11388 11387 1
 3733 11388 11393 1
 3734 11394 11393 1
 3735 11394 11399 1
 3736 11400 11399 1
 3737 11400 11405 1
 3738 11406 11405 1
 3739 11406 11411 1
 3740 11412 11411 1
 3741 11412 11417 1
 3742 11418 11417 1
 3743 11418 11423 1
 3744 11424 11423 1
 3745 11424 11429 1
 3746 11430 11429 1
 3747 11430 11435 1
 3748 11436 11435 1
 3749 11436 11441 1
 3750 11442 11441 1
 3751 11442 11447 1
 3752 11448 11447 1
 3753 11448 11453 1
 3754 11454 11453 1
 3755 11454 11459 1
 3756 11460 11459 1
 3757 11460 11465 1
 3758 11466 11465 1
 3759 11466 11471 1
 3760 11472 11471 1
 3761 11472 11477 1
 3762 11478 11477 1
 3763 11478 11483 1
 3764 11484 11483 1
 3765 11484 11489 1
 3766 11490 11489 1
 3767 11490 11495 1
 3768 11496 11495 1
 3769 11496 11501 1
 3770 11502 11501 1
 3771 11502 11507 1
 3772 11508 11507 1
 3773 11508 11513 1
 3774 11514 11513 1
 3775 11514 11519 1
 3776 11520 11519 1
 3777 11526 11525 1
 3778 11526 11531 1
 3779 11532 11531 1
 3780 11532 11537 1
 3781 11538 11537 1
 3782 11538 11543 1
 3783 11544 11543 1
 3784 11544 11549 1
 3785 11550 11549 1
 3786 11550 11555 1
 3787 11556 11555 1
 3788 11556 11561 1
 3789 11562 11561 1
 3790 11562 11567 1
 3791 11568 11567 1
 3792 11568 11573 1
 3793 11574 11573 1
 3794 11574 11579 1
 3795 11580 11579 1
 3796 11580 11585 1
 3797 11586 11585 1
 3798 11586 11591 1
 3799 11592 11591 1
 3800 11592 11597 1
 3801 11598 11597 1
 3802 11598 11603 1
 3803 11604 11603 1
 3804 11604 11609 1
 3805 11610 11609 1
 3806 11610 11615 1
 3807 11616 11615 1
 3808 11616 11621 1
 3809 11622 11621 1
 3810 11622 11627 1
 3811 11628 11627 1
 3812 11628 11633 1
 3813 11634 11633 1
 3814 11634 11639 1
 3815 11640 11639 1
 3816 11640 11645 1
 3817 11646 11645 1
 3818 11646 11651 1
 3819 11652 11651 1
 3820 11652 11657 1
 3821 11658 11657 1
 3822 11658 11663 1
 3823 11664 11663 1
 3824 11664 11669 1
 3825 11670 11669 1
 3826 11670 11675 1
 3827 11676 11675 1
 3828 11676 11681 1
 3829 11682 11681 1
 3830 11682 11687 1
 3831 11688 11687 1
 3832 11688 11693 1
 3833 11694 11693 1
 3834 11694 11699 1
 3835 11700 11699 1
 3836 11706 11705 1
 3837 11706 11711 1
 3838 11712 11711 1
 3839 11712 11717 1
 3840 11718 11717 1
 3841 11718 11723 1
 3842 11724 11723 1
 3843 11724 11729 1
 3844 11730 11729 1
 3845 11730 11735 1
 3846 11736 11735 1
 3847 11736 11741 1
 3848 11742 11741 1
 3849 11742 11747 1
 3850 11748 11747 1
 3851 11748 11753 1
 3852 11754 11753 1
 3853 11754 11759 1
 3854 11760 11759 1
 3855 11760 11765 1
 3856 11766 11765 1
 3857 11766 11771 1
 3858 11772 11771 1
 3859 11772 11777 1
 3860 11778 11777 1
 3861 11778 11783 1
 3862 11784 11783 1
 3863 11784 11789 1
 3864 11790 11789 1
 3865 11790 11795 1
 3866 11796 11795 1
 3867 11796 11801 1
 3868 11802 11801 1
 3869 11802 11807 1
 3870 11808 11807 1
 3871 11808 11813 1
 3872 11814 11813 1
 3873 11814 11819 1
 3874 11820 11819 1
 3875 11820 11825 1
 3876 11826 11825 1
 3877 11826 11831 1
 3878 11832 11831 1
 3879 11832 11837 1
 3880 11838 11837 1
 3881 11838 11843 1
 3882 11844 11843 1
 3883 11844 11849 1
 3884 11850 11849 1
 3885 11850 11855 1
 3886 11856 11855 1
 3887 11856 11861 1
 3888 11862 11861 1
 3889 11862 11867 1
 3890 11868 11867 1
 3891 11868 11873 1
 3892 11874 11873 1
 3893 11874 11879 1
 3894 11880 11879 1
 3895 11886 11885 1
 3896 11886 11891 1
 3897 11892 11891 1
 3898 11892 11897 1
 3899 11898 11897 1
 3900 11898 11903 1
 3901 11904 11903 1
 3902 11904 11909 1
 3903 11910 11909 1
 3904 11910 11915 1
 3905 11916 11915 1
 3906 11916 11921 1
 3907 11922 11921 1
 3908 11922 11927 1
 3909 11928 11927 1
 3910 11928 11933 1
 3911 11934 11933 1
 3912 11934 11939 1
 3913 11940 11939 1
 3914 11940 11945 1
 3915 11946 11945 1
 3916 11946 11951 1
 3917 11952 11951 1
 3918 11952 11957 1
 3919 11958 11957 1
 3920 11958 11963 1
 3921 11964 11963 1
 3922 11964 11969 1
 3923 11970 11969 1
 3924 11970 11975 1
 3925 11976 11975 1
 3926 11976 11981 1
 3927 11982 11981 1
 3928 11982 11987 1
 3929 11988 11987 1
 3930 11988 11993 1
 3931 11994 11993 1
 3932 11994 11999 1
 3933 12000 11999 1
 3934 12000 12005 1
 3935 12006 12005 1
 3936 12006 12011 1
 3937 12012 12011 1
 3938 12012 12017 1
 3939 12018 12017 1
 3940 12018 12023 1
 3941 12024 12023 1
 3942 12024 12029 1
 3943 12030 12029 1
 3944 12030 12035 1
 3945 12036 12035 1
 3946 12036 12041 1
 3947 12042 12041 1
 3948 12042 12047 1
 3949 12048 12047 1
 3950 12048 12053 1
 3951 12054 12053 1
 3952 12054 12059 1
 3953 12060 12059 1
 3954 12066 12065 1
 3955 12066 12071 1
 3956 12072 12071 1
 3957 12072 12077 1
 3958 12078 12077 1
 3959 12078 12083 1
 3960 12084 12083 1
 3961 12084 12089 1
 3962 12090 12089 1
 3963 12090 12095 1
 3964 12096 12095 1
 3965 12096 12101 1
 3966 12102 12101 1
 3967 12102 12107 1
 3968 12108 12107 1
 3969 12108 12113 1
 3970 12114 12113 1
 3971 12114 12119 1
 3972 12120 12119 1
 3973 12120 12125 1
 3974 12126 12125 1
 3975 12126 12131 1
 3976 12132 12131 1
 3977 12132 12137 1
 3978 12138 12137 1
 3979 12138 12143 1
 3980 12144 12143 1
 3981 12144 12149 1
 3982 12150 12149 1
 3983 12150 12155 1
 3984 12156 12155 1
 3985 12156 12161 1
 3986 12162 12161 1
 3987 12162 12167 1
 3988 12168 12167 1
 3989 12168 12173 1
 3990 12174 12173 1
 3991 12174 12179 1
 3992 12180 12179 1
 3993 12180 12185 1
 3994 12186 12185 1
 3995 12186 12191 1
 3996 12192 12191 1
 3997 12192 12197 1
 3998 12198 12197 1
 3999 12198 12203 1
 4000 12204 12203 1
 4001 12204 12209 1
 4002 12210 12209 1
 4003 12210 12215 1
 4004 12216 12215 1
 4005 12216 12221 1
 4006 12222 12221 1
 4007 12222 12227 1
 4008 12228 12227 1
 4009 12228 12233 1
 4010 12234 12233 1
 4011 12234 12239 1
 4012 12240 12239 1
 4013 12246 12245 1
 4014 12246 12251 1
 4015 12252 12251 1
 4016 12252 12257 1
 4017 12258 12257 1
 4018 12258 12263 1
 4019 12264 12263 1
 4020 12264 12269 1
 4021 12270 12269 1
 4022 12270 12275 1
 4023 12276 12275 1
 4024 12276 12281 1
 4025 12282 12281 1
 4026 12282 12287 1
 4027 12288 12287 1
 4028 12288 12293 1
 4029 12294 12293 1
 4030 12294 12299 1
 4031 12300 12299 1
 4032 12300 12305 1
 4033 12306 12305 1
 4034 12306 12311 1
 4035 12312 12311 1
 4036 12312 12317 1
 4037 12318 12317 1
 4038 12318 12323 1
 4039 12324 12323 1
 4040 12324 12329 1
 4041 12330 12329 1
 4042 12330 12335 1
 4043 12336 12335 1
 4044 12336 12341 1
 4045 12342 12341 1
 4046 12342 12347 1
 4047 12348 12347 1
 4048 12348 12353 1
 4049 12354 12353 1
 4050 12354 12359 1
 4051 12360 12359 1
 4052 12360 12365 1
 4053 12366 12365 1
 4054 12366 12371 1
 4055 12372 12371 1
 4056 12372 12377 1
 4057 12378 12377 1
 4058 12378 12383 1
 4059 12384 12383 1
 4060 12384 12389 1
 4061 12390 12389 1
 4062 12390 12395 1
 4063 12396 12395 1
 4064 12396 12401 1
 4065 12402 12401 1
 4066 12402 12407 1
 4067 12408 12407 1
 4068 12408 12413 1
 4069 12414 12413 1
 4070 12414 12419 1
 4071 12420 12419 1
 4072 12426 12425 1
 4073 12426 12431 1
 4074 12432 12431 1
 4075 12432 12437 1
 4076 12438 12437 1
 4077 12438 12443 1
 4078 12444 12443 1
 4079 12444 12449 1
 4080 12450 12449 1
 4081 12450 12455 1
 4082 12456 12455 1
 4083 12456 12461 1
 4084 12462 12461 1
 4085 12462 12467 1
 4086 12468 12467 1
 4087 12468 12473 1
 4088 12474 12473 1
 4089 12474 12479 1
 4090 12480 12479 1
 4091 12480 12485 1
 4092 12486 12485 1
 4093 12486 12491 1
 4094 12492 12491 1
 4095 12492 12497 1
 4096 12498 12497 1
 4097 12498 12503 1
 4098 12504 12503 1
 4099 12504 12509 1
 4100 12510 12509 1
 4101 12510 12515 1
 4102 12516 12515 1
 4103 12516 12521 1
 4104 12522 12521 1
 4105 12522 12527 1
 4106 12528 12527 1
 4107 12528 12533 1
 4108 12534 12533 1
 4109 12534 12539 1
 4110 12540 12539 1
 4111 12540 12545 1
 4112 12546 12545 1
 4113 12546 12551 1
 4114 12552 12551 1
 4115 12552 12557 1
 4116 12558 12557 1
 4117 12558 12563 1
 4118 12564 12563 1
 4119 12564 12569 1
 4120 12570 12569 1
 4121 12570 12575 1
 4122 12576 12575 1
 4123 12576 12581 1
 4124 12582 12581 1
 4125 12582 12587 1
 4126 12588 12587 1
 4127 12588 12593 1
 4128 12594 12593 1
 4129 12594 12599 1
 4130 12600 12599 1
 4131 12606 12605 1
 4132 12606 12611 1
 4133 12612 12611 1
 4134 12612 12617 1
 4135 12618 12617 1
 4136 12618 12623 1
 4137 12624 12623 1
 4138 12624 12629 1
 4139 12630 12629 1
 4140 12630 12635 1
 4141 12636 12635 1
 4142 12636 12641 1
 4143 12642 12641 1
 4144 12642 12647 1
 4145 12648 12647 1
 4146 12648 12653 1
 4147 12654 12653 1
 4148 12654 12659 1
 4149 12660 12659 1
 4150 12660 12665 1
 4151 12666 12665 1
 4152 12666 12671 1
 4153 12672 12671 1
 4154 12672 12677 1
 4155 12678 12677 1
 4156 12678 12683 1
 4157 12684 12683 1
 4158 12684 12689 1
 4159 12690 12689 1
 4160 12690 12695 1
 4161 12696 12695 1
 4162 12696 12701 1
 4163 12702 12701 1
 4164 12702 12707 1
 4165 12708 12707 1
 4166 12708 12713 1
 4167 12714 12713 1
 4168 12714 12719 1
 4169 12720 12719 1
 4170 12720 12725 1
 4171 12726 12725 1
 4172 12726 12731 1
 4173 12732 12731 1
 4174 12732 12737 1
 4175 12738 12737 1
 4176 12738 12743 1
 4177 12744 12743 1
 4178 12744 12749 1
 4179 12750 12749 1
 4180 12750 12755 1
 4181 12756 12755 1
 4182 12756 12761 1
 4183 12762 12761 1
 4184 12762 12767 1
 4185 12768 12767 1
 4186 12768 12773 1
 4187 12774 12773 1
 4188 12774 12779 1
 4189 12780 12779 1
 4190 12786 12785 1
 4191 12786 12791 1
 4192 12792 12791 1
 4193 12792 12797 1
 4194 12798 12797 1
 4195 12798 12803 1
 4196 12804 12803 1
 4197 12804 12809 1
 4198 12810 12809 1
 4199 12810 12815 1
 4200 12816 12815 1
 4201 12816 12821 1
 4202 12822 12821 1
 4203 12822 12827 1
 4204 12828 12827 1
 4205 12828 12833 1
 4206 12834 12833 1
 4207 12834 12839 1
 4208 12840 12839 1
 4209 12840 12845 1
 4210 12846 12845 1
 4211 12846 12851 1
 4212 12852 12851 1
 4213 12852 12857 1
 4214 12858 12857 1
 4215 12858 12863 1
 4216 12864 12863 1
 4217 12864 12869 1
 4218 12870 12869 1
 4219 12870 12875 1
 4220 12876 12875 1
 4221 12876 12881 1
 4222 12882 12881 1
 4223 12882 12887 1
 4224 12888 12887 1
 4225 12888 12893 1
 4226 12894 12893 1
 4227 12894 12899 1
 4228 12900 12899 1
 4229 12900 12905 1
 4230 12906 12905 1
 4231 12906 12911 1
 4232 12912 12911 1
 4233 12912 12917 1
 4234 12918 12917 1
 4235 12918 12923 1
 4236 12924 12923 1
 4237 12924 12929 1
 4238 12930 12929 1
 4239 12930 12935 1
 4240 12936 12935 1
 4241 12936 12941 1
 4242 12942 12941 1
 4243 12942 12947 1
 4244 12948 12947 1
 4245 12948 12953 1
 4246 12954 12953 1
 4247 12954 12959 1
 4248 12960 12959 1
 4249 12966 12965 1
 4250 12966 12971 1
 4251 12972 12971 1
 4252 12972 12977 1
 4253 12978 12977 1
 4254 12978 12983 1
 4255 12984 12983 1
 4256 12984 12989 1
 4257 12990 12989 1
 4258 12990 12995 1
 4259 12996 12995 1
 4260 12996 13001 1
 4261 13002 13001 1
 4262 13002 13007 1
 4263 13008 13007 1
 4264 13008 13013 1
 4265 13014 13013 1
 4266 13014 13019 1
 4267 13020 13019 1
 4268 13020 13025 1
 4269 13026 13025 1
 4270 13026 13031 1
 4271 13032 13031 1
 4272 13032 13037 1
 4273 13038 13037 1
 4274 13038 13043 1
 4275 13044 13043 1
 4276 13044 13049 1
 4277 13050 13049 1
 4278 13050 13055 1
 4279 13056 13055 1
 4280 13056 13061 1
 4281 13062 13061 1
 4282 13062 13067 1
 4283 13068 13067 1
 4284 13068 13073 1
 4285 13074 13073 1
 4286 13074 13079 1
 4287 13080 13079 1
 4288 13080 13085 1
 4289 13086 13085 1
 4290 13086 13091 1
 4291 13092 13091 1
 4292 13092 13097 1
 4293 13098 13097 1
 4294 13098 13103 1
 4295 13104 13103 1
 4296 13104 13109 1
 4297 13110 13109 1
 4298 13110 13115 1
 4299 13116 13115 1
 4300 13116 13121 1
 4301 13122 13121 1
 4302 13122 13127 1
 4303 13128 13127 1
 4304 13128 13133 1
 4305 13134 13133 1
 4306 13134 13139 1
 4307 13140 13139 1
 4308 13146 13145 1
 4309 13146 13151 1
 4310 13152 13151 1
 4311 13152 13157 1
 4312 13158 13157 1
 4313 13158 13163 1
 4314 13164 13163 1
 4315 13164 13169 1
 4316 13170 13169 1
 4317 13170 13175 1
 4318 13176 13175 1
 4319 13176 13181 1
 4320 13182 13181 1
 4321 13182 13187 1
 4322 13188 13187 1
 4323 13188 13193 1
 4324 13194 13193 1
 4325 13194 13199 1
 4326 13200 13199 1
 4327 13200 13205 1
 4328 13206 13205 1
 4329 13206 13211 1
 4330 13212 13211 1
 4331 13212 13217 1
 4332 13218 13217 1
 4333 13218 13223 1
 4334 13224 13223 1
 4335 13224 13229 1
 4336 13230 13229 1
 4337 13230 13235 1
 4338 13236 13235 1
 4339 13236 13241 1
 4340 13242 13241 1
 4341 13242 13247 1
 4342 13248 13247 1
 4343 13248 13253 1
 4344 13254 13253 1
 4345 13254 13259 1
 4346 13260 13259 1
 4347 13260 13265 1
 4348 13266 13265 1
 4349 13266 13271 1
 4350 13272 13271 1
 4351 13272 13277 1
 4352 13278 13277 1
 4353 13278 13283 1
 4354 13284 13283 1
 4355 13284 13289 1
 4356 13290 13289 1
 4357 13290 13295 1
 4358 13296 13295 1
 4359 13296 13301 1
 4360 13302 13301 1
 4361 13302 13307 1
 4362 13308 13307 1
 4363 13308 13313 1
 4364 13314 13313 1
 4365 13314 13319 1
 4366 13320 13319 1
 4367 13326 13325 1
 4368 13326 13331 1
 4369 13332 13331 1
 4370 13332 13337 1
 4371 13338 13337 1
 4372 13338 13343 1
 4373 13344 13343 1
 4374 13344 13349 1
 4375 13350 13349 1
 4376 13350 13355 1
 4377 13356 13355 1
 4378 13356 13361 1
 4379 13362 13361 1
 4380 13362 13367 1
 4381 13368 13367 1
 4382 13368 13373 1
 4383 13374 13373 1
 4384 13374 13379 1
 4385 13380 13379 1
 4386 13380 13385 1
 4387 13386 13385 1
 4388 13386 13391 1
 4389 13392 13391 1
 4390 13392 13397 1
 4391 13398 13397 1
 4392 13398 13403 1
 4393 13404 13403 1
 4394 13404 13409 1
 4395 13410 13409 1
 4396 13410 13415 1
 4397 13416 13415 1
 4398 13416 13421 1
 4399 13422 13421 1
 4400 13422 13427 1
 4401 13428 13427 1
 4402 13428 13433 1
 4403 13434 13433 1
 4404 13434 13439 1
 4405 13440 13439 1
 4406 13440 13445 1
 4407 13446 13445 1
 4408 13446 13451 1
 4409 13452 13451 1
 4410 13452 13457 1
 4411 13458 13457 1
 4412 13458 13463 1
 4413 13464 13463 1
 4414 13464 13469 1
 4415 13470 13469 1
 4416 13470 13475 1
 4417 13476 13475 1
 4418 13476 13481 1
 4419 13482 13481 1
 4420 13482 13487 1
 4421 13488 13487 1
 4422 13488 13493 1
 4423 13494 13493 1
 4424 13494 13499 1
 4425 13500 13499 1
 4426 13506 13505 1
 4427 13506 13511 1
 4428 13512 13511 1
 4429 13512 13517 1
 4430 13518 13517 1
 4431 13518 13523 1
 4432 13524 13523 1
 4433 13524 13529 1
 4434 13530 13529 1
 4435 13530 13535 1
 4436 13536 13535 1
 4437 13536 13541 1
 4438 13542 13541 1
 4439 13542 13547 1
 4440 13548 13547 1
 4441 13548 13553 1
 4442 13554 13553 1
 4443 13554 13559 1
 4444 13560 13559 1
 4445 13560 13565 1
 4446 13566 13565 1
 4447 13566 13571 1
 4448 13572 13571 1
 4449 13572 13577 1
 4450 13578 13577 1
 4451 13578 13583 1
 4452 13584 13583 1
 4453 13584 13589 1
 4454 13590 13589 1
 4455 13590 13595 1
 4456 13596 13595 1
 4457 13596 13601 1
 4458 13602 13601 1
 4459 13602 13607 1
 4460 13608 13607 1
 4461 13608 13613 1
 4462 13614 13613 1
 4463 13614 13619 1
 4464 13620 13619 1
 4465 13620 13625 1
 4466 13626 13625 1
 4467 13626 13631 1
 4468 13632 13631 1
 4469 13632 13637 1
 4470 13638 13637 1
 4471 13638 13643 1
 4472 13644 13643 1
 4473 13644 13649 1
 4474 13650 13649 1
 4475 13650 13655 1
 4476 13656 13655 1
 4477 13656 13661 1
 4478 13662 13661 1
 4479 13662 13667 1
 4480 13668 13667 1
 4481 13668 13673 1
 4482 13674 13673 1
 4483 13674 13679 1
 4484 13680 13679 1
 4485 13686 13685 1
 4486 13686 13691 1
 4487 13692 13691 1
 4488 13692 13697 1
 4489 13698 13697 1
 4490 13698 13703 1
 4491 13704 13703 1
 4492 13704 13709 1
 4493 13710 13709 1
 4494 13710 13715 1
 4495 13716 13715 1
 4496 13716 13721 1
 4497 13722 13721 1
 4498 13722 13727 1
 4499 13728 13727 1
 4500 13728 13733 1
 4501 13734 13733 1
 4502 13734 13739 1
 4503 13740 13739 1
 4504 13740 13745 1
 4505 13746 13745 1
 4506 13746 13751 1
 4507 13752 13751 1
 4508 13752 13757 1
 4509 13758 13757 1
 4510 13758 13763 1
 4511 13764 13763 1
 4512 13764 13769 1
 4513 13770 13769 1
 4514 13770 13775 1
 4515 13776 13775 1
 4516 13776 13781 1
 4517 13782 13781 1
 4518 13782 13787 1
 4519 13788 13787 1
 4520 13788 13793 1
 4521 13794 13793 1
 4522 13794 13799 1
 4523 13800 13799 1
 4524 13800 13805 1
 4525 13806 13805 1
 4526 13806 13811 1
 4527 13812 13811 1
 4528 13812 13817 1
 4529 13818 13817 1
 4530 13818 13823 1
 4531 13824 13823 1
 4532 13824 13829 1
 4533 13830 13829 1
 4534 13830 13835 1
 4535 13836 13835 1
 4536 13836 13841 1
 4537 13842 13841 1
 4538 13842 13847 1
 4539 13848 13847 1
 4540 13848 13853 1
 4541 13854 13853 1
 4542 13854 13859 1
 4543 13860 13859 1
 4544 13866 13865 1
 4545 13866 13871 1
 4546 13872 13871 1
 4547 13872 13877 1
 4548 13878 13877 1
 4549 13878 13883 1
 4550 13884 13883 1
 4551 13884 13889 1
 4552 13890 13889 1
 4553 13890 13895 1
 4554 13896 13895 1
 4555 13896 13901 1
 4556 13902 13901 1
 4557 13902 13907 1
 4558 13908 13907 1
 4559 13908 13913 1
 4560 13914 13913 1
 4561 13914 13919 1
 4562 13920 13919 1
 4563 13920 13925 1
 4564 13926 13925 1
 4565 13926 13931 1
 4566 13932 13931 1
 4567 13932 13937 1
 4568 13938 13937 1
 4569 13938 13943 1
 4570 13944 13943 1
 4571 13944 13949 1
 4572 13950 13949 1
 4573 13950 13955 1
 4574 13956 13955 1
 4575 13956 13961 1
 4576 13962 13961 1
 4577 13962 13967 1
 4578 13968 13967 1
 4579 13968 13973 1
 4580 13974 13973 1
 4581 13974 13979 1
 4582 13980 13979 1
 4583 13980 13985 1
 4584 13986 13985 1
 4585 13986 13991 1
 4586 13992 13991 1
 4587 13992 13997 1
 4588 13998 13997 1
 4589 13998 14003 1
 4590 14004 14003 1
 4591 14004 14009 1
 4592 14010 14009 1
 4593 14010 14015 1
 4594 14016 14015 1
 4595 14016 14021 1
 4596 14022 14021 1
 4597 14022 14027 1
 4598 14028 14027 1
 4599 14028 14033 1
 4600 14034 14033 1
 4601 14034 14039 1
 4602 14040 14039 1
 4603 14046 14045 1
 4604 14046 14051 1
 4605 14052 14051 1
 4606 14052 14057 1
 4607 14058 14057 1
 4608 14058 14063 1
 4609 14064 14063 1
 4610 14064 14069 1
 4611 14070 14069 1
 4612 14070 14075 1
 4613 14076 14075 1
 4614 14076 14081 1
 4615 14082 14081 1
 4616 14082 14087 1
 4617 14088 14087 1
 4618 14088 14093 1
 4619 14094 14093 1
 4620 14094 14099 1
 4621 14100 14099 1
 4622 14100 14105 1
 4623 14106 14105 1
 4624 14106 14111 1
 4625 14112 14111 1
 4626 14112 14117 1
 4627 14118 14117 1
 4628 14118 14123 1
 4629 14124 14123 1
 4630 14124 14129 1
 4631 14130 14129 1
 4632 14130 14135 1
 4633 14136 14135 1
 4634 14136 14141 1
 4635 14142 14141 1
 4636 14142 14147 1
 4637 14148 14147 1
 4638 14148 14153 1
 4639 14154 14153 1
 4640 14154 14159 1
 4641 14160 14159 1
 4642 14160 14165 1
 4643 14166 14165 1
 4644 14166 14171 1
 4645 14172 14171 1
 4646 14172 14177 1
 4647 14178 14177 1
 4648 14178 14183 1
 4649 14184 14183 1
 4650 14184 14189 1
 4651 14190 14189 1
 4652 14190 14195 1
 4653 14196 14195 1
 4654 14196 14201 1
 4655 14202 14201 1
 4656 14202 14207 1
 4657 14208 14207 1
 4658 14208 14213 1
 4659 14214 14213 1
 4660 14214 14219 1
 4661 14220 14219 1
 4662 14226 14225 1
 4663 14226 14231 1
 4664 14232 14231 1
 4665 14232 14237 1
 4666 14238 14237 1
 4667 14238 14243 1
 4668 14244 14243 1
 4669 14244 14249 1
 4670 14250 14249 1
 4671 14250 14255 1
 4672 14256 14255 1
 4673 14256 14261 1
 4674 14262 14261 1
 4675 14262 14267 1
 4676 14268 14267 1
 4677 14268 14273 1
 4678 14274 14273 1
 4679 14274 14279 1
 4680 14280 14279 1
 4681 14280 14285 1
 4682 14286 14285 1
 4683 14286 14291 1
 4684 14292 14291 1
 4685 14292 14297 1
 4686 14298 14297 1
 4687 14298 14303 1
 4688 14304 14303 1
 4689 14304 14309 1
 4690 14310 14309 1
 4691 14310 14315 1
 4692 14316 14315 1
 4693 14316 14321 1
 4694 14322 14321 1
 4695 14322 14327 1
 4696 14328 14327 1
 4697 14328 14333 1
 4698 14334 14333 1
 4699 14334 14339 1
 4700 14340 14339 1
 4701 14340 14345 1
 4702 14346 14345 1
 4703 14346 14351 1
 4704 14352 14351 1
 4705 14352 14357 1
 4706 14358 14357 1
 4707 14358 14363 1
 4708 14364 14363 1
 4709 14364 14369 1
 4710 14370 14369 1
 4711 14370 14375 1
 4712 14376 14375 1
 4713 14376 14381 1
 4714 14382 14381 1
 4715 14382 14387 1
 4716 14388 14387 1
 4717 14388 14393 1
 4718 14394 14393 1
 4719 14394 14399 1
 4720 14400 14399 1
 4721 14406 14405 1
 4722 14406 14411 1
 4723 14412 14411 1
 4724 14412 14417 1
 4725 14418 14417 1
 4726 14418 14423 1
 4727 14424 14423 1
 4728 14424 14429 1
 4729 14430 14429 1
 4730 14430 14435 1
 4731 14436 14435 1
 4732 14436 14441 1
 4733 14442 14441 1
 4734 14442 14447 1
 4735 14448 14447 1
 4736 14448 14453 1
 4737 14454 14453 1
 4738 14454 14459 1
 4739 14460 14459 1
 4740 14460 14465 1
 4741 14466 14465 1
 4742 14466 14471 1
 4743 14472 14471 1
 4744 14472 14477 1
 4745 14478 14477 1
 4746 14478 14483 1
 4747 14484 14483 1
 4748 14484 14489 1
 4749 14490 14489 1
 4750 14490 14495 1
 4751 14496 14495 1
 4752 14496 14501 1
 4753 14502 14501 1
 4754 14502 14507 1
 4755 14508 14507 1
 4756 14508 14513 1
 4757 14514 14513 1
 4758 14514 14519 1
 4759 14520 14519 1
 4760 14520 14525 1
 4761 14526 14525 1
 4762 14526 14531 1
 4763 14532 14531 1
 4764 14532 14537 1
 4765 14538 14537 1
 4766 14538 14543 1
 4767 14544 14543 1
 4768 14544 14549 1
 4769 14550 14549 1
 4770 14550 14555 1
 4771 14556 14555 1
 4772 14556 14561 1
 4773 14562 14561 1
 4774 14562 14567 1
 4775 14568 14567 1
 4776 14568 14573 1
 4777 14574 14573 1
 4778 14574 14579 1
 4779 14580 14579 1
 4780 14586 14585 1
 4781 14586 14591 1
 4782 14592 14591 1
 4783 14592 14597 1
 4784 14598 14597 1
 4785 14598 14603 1
 4786 14604 14603 1
 4787 14604 14609 1
 4788 14610 14609 1
 4789 14610 14615 1
 4790 14616 14615 1
 4791 14616 14621 1
 4792 14622 14621 1
 4793 14622 14627 1
 4794 14628 14627 1
 4795 14628 14633 1
 4796 14634 14633 1
 4797 14634 14639 1
 4798 14640 14639 1
 4799 14640 14645 1
 4800 14646 14645 1
 4801 14646 14651 1
 4802 14652 14651 1
 4803 14652 14657 1
 4804 14658 14657 1
 4805 14658 14663 1
 4806 14664 14663 1
 4807 14664 14669 1
 4808 14670 14669 1
 4809 14670 14675 1
 4810 14676 14675 1
 4811 14676 14681 1
 4812 14682 14681 1
 4813 14682 14687 1
 4814 14688 14687 1
 4815 14688 14693 1
 4816 14694 14693 1
 4817 14694 14699 1
 4818 14700 14699 1
 4819 14700 14705 1
 4820 14706 14705 1
 4821 14706 14711 1
 4822 14712 14711 1
 4823 14712 14717 1
 4824 14718 14717 1
 4825 14718 14723 1
 4826 14724 14723 1
 4827 14724 14729 1
 4828 14730 14729 1
 4829 14730 14735 1
 4830 14736 14735 1
 4831 14736 14741 1
 4832 14742 14741 1
 4833 14742 14747 1
 4834 14748 14747 1
 4835 14748 14753 1
 4836 14754 14753 1
 4837 14754 14759 1
 4838 14760 14759 1
 4839 14766 14765 1
 4840 14766 14771 1
 4841 14772 14771 1
 4842 14772 14777 1
 4843 14778 14777 1
 4844 14778 14783 1
 4845 14784 14783 1
 4846 14784 14789 1
 4847 14790 14789 1
 4848 14790 14795 1
 4849 14796 14795 1
 4850 14796 14801 1
 4851 14802 14801 1
 4852 14802 14807 1
 4853 14808 14807 1
 4854 14808 14813 1
 4855 14814 14813 1
 4856 14814 14819 1
 4857 14820 14819 1
 4858 14820 14825 1
 4859 14826 14825 1
 4860 14826 14831 1
 4861 14832 14831 1
 4862 14832 14837 1
 4863 14838 14837 1
 4864 14838 14843 1
 4865 14844 14843 1
 4866 14844 14849 1
 4867 14850 14849 1
 4868 14850 14855 1
 4869 14856 14855 1
 4870 14856 14861 1
 4871 14862 14861 1
 4872 14862 14867 1
 4873 14868 14867 1
 4874 14868 14873 1
 4875 14874 14873 1
 4876 14874 14879 1
 4877 14880 14879 1
 4878 14880 14885 1
 4879 14886 14885 1
 4880 14886 14891 1
 4881 14892 14891 1
 4882 14892 14897 1
 4883 14898 14897 1
 4884 14898 14903 1
 4885 14904 14903 1
 4886 14904 14909 1
 4887 14910 14909 1
 4888 14910 14915 1
 4889 14916 14915 1
 4890 14916 14921 1
 4891 14922 14921 1
 4892 14922 14927 1
 4893 14928 14927 1
 4894 14928 14933 1
 4895 14934 14933 1
 4896 14934 14939 1
 4897 14940 14939 1
 4898     5     1 1
 4899     5     2 1
 4900     6     3 1
 4901     6     4 1
 4902    11     7 1
 4903    11     8 1
 4904    12     9 1
 4905    12    10 1
 4906    17    13 1
 4907    17    14 1
 4908    18    15 1
 4909    18    16 1
 4910    23    19 1
 4911    23    20 1
 4912    24    21 1
 4913    24    22 1
 4914    29    25 1
 4915    29    26 1
 4916    30    27 1
 4917    30    28 1
 4918    35    31 1
 4919    35    32 1
 4920    36    33 1
 4921    36    34 1
 4922    41    37 1
 4923    41    38 1
 4924    42    39 1
 4925    42    40 1
 4926    47    43 1
 4927    47    44 1
 4928    48    45 1
 4929    48    46 1
 4930    53    49 1
 4931    53    50 1
 4932    54    51 1
 4933    54    52 1
 4934    59    55 1
 4935    59    56 1
 4936    60    57 1
 4937    60    58 1
 4938    65    61 1
 4939    65    62 1
 4940    66    63 1
 4941    66    64 1
 4942    71    67 1
 4943    71    68 1
 4944    72    69 1
 4945    72    70 1
 4946    77    73 1
 4947    77    74 1
 4948    78    75 1
 4949    78    76 1
 4950    83    79 1
 4951    83    80 1
 4952    84    81 1
 4953    84    82 1
 4954    89    85 1
 4955    89    86 1
 4956    90    87 1
 4957    90    88 1
 4958    95    91 1
 4959    95    92 1
 4960    96    93 1
 4961    96    94 1
 4962   101    97 1
 4963   101    98 1
 4964   102    99 1
 4965   102   100 1
 4966   107   103 1
 4967   107   104 1
 4968   108   105 1
 4969   108   106 1
 4970   113   109 1
 4971   113   110 1
 4972   114   111 1
 4973   114   112 1
 4974   119   115 1
 4975   119   116 1
 4976   120   117 1
 4977   120   118 1
 4978   125   121 1
 4979   125   122 1
 4980   126   123 1
 4981   126   124 1
 4982   131   127 1
 4983   131   128 1
 4984   132   129 1
 4985   132   130 1
 4986   137   133 1
 4987   137   134 1
 4988   138   135 1
 4989   138   136 1
 4990   143   139 1
 4991   143   140 1
 4992   144   141 1
 4993   144   142 1
 4994   149   145 1
 4995   149   146 1
 4996   150   147 1
 4997   150   148 1
 4998   155   151 1
 4999   155   152 1
 5000   156   153 1
 5001   156   154 1
 5002   161   157 1
 5003   161   158 1
 5004   162   159 1
 5005   162   160 1
 5006   167   163 1
 5007   167   164 1
 5008   168   165 1
 5009   168   166 1
 5010   173   169 1
 5011   173   170 1
 5012   174   171 1
 5013   174   172 1
 5014   179   175 1
 5015   179   176 1
 5016   180   177 1
 5017   180   178 1
 5018   185   181 1
 5019   185   182 1
 5020   186   183 1
 5021   186   184 1
 5022   191   187 1
 5023   191   188 1
 5024   192   189 1
 5025   192   190 1
 5026   197   193 1
 5027   197   194 1
 5028   198   195 1
 5029   198   196 1
 5030   203   199 1
 5031   203   200 1
 5032   204   201 1
 5033   204   202 1
 5034   209   205 1
 5035   209   206 1
 5036   210   207 1
 5037   210   208 1
 5038   215   211 1
 5039   215   212 1
 5040   216   213 1
 5041   216   214 1
 5042   221   217 1
 5043   221   218 1
 5044   222   219 1
 5045   222   220 1
 5046   227   223 1
 5047   227   224 1
 5048   228   225 1
 5049   228   226 1
 5050   233   229 1
 5051   233   230 1
 5052   234   231 1
 5053   234   232 1
 5054   239   235 1
 5055   239   236 1
 5056   240   237 1
 5057   240   238 1
 5058   245   241 1
 5059   245   242 1
 5060   246   243 1
 5061   246   244 1
 5062   251   247 1
 5063   251   248 1
 5064   252   249 1
 5065   252   250 1
 5066   257   253 1
 5067   257   254 1
 5068   258   255 1
 5069   258   256 1
 5070   263   259 1
 5071   263   260 1
 5072   264   261 1
 5073   264   262 1
 5074   269   265 1
 5075   269   266 1
 5076   270   267 1
 5077   270   268 1
 5078   275   271 1
 5079   275   272 1
 5080   276   273 1
 5081   276   274 1
 5082   281   277 1
 5083   281   278 1
 5084   282   279 1
 5085   282   280 1
 5086   287   283 1
 5087   287   284 1
 5088   288   285 1
 5089   288   286 1
 5090   293   289 1
 5091   293   290 1
 5092   294   291 1
 5093   294   292 1
 5094   299   295 1
 5095   299   296 1
 5096   300   297 1
 5097   300   298 1
 5098   305   301 1
 5099   305   302 1
 5100   306   303 1
 5101   306   304 1
 5102   311   307 1
 5103   311   308 1
 5104   312   309 1
 5105   312   310 1
 5106   317   313 1
 5107   317   314 1
 5108   318   315 1
 5109   318   316 1
 5110   323   319 1
 5111   323   320 1
 5112   324   321 1
 5113   324   322 1
 5114   329   325 1
 5115   329   326 1
 5116   330   327 1
 5117   330   328 1
 5118   335   331 1
 5119   335   332 1
 5120   336   333 1
 5121   336   334 1
 5122   341   337 1
 5123   341   338 1
 5124   342   339 1
 5125   342   340 1
 5126   347   343 1
 5127   347   344 1
 5128   348   345 1
 5129   348   346 1
 5130   353   349 1
 5131   353   350 1
 5132   354   351 1
 5133   354   352 1
 5134   359   355 1
 5135   359   356 1
 5136   360   357 1
 5137   360   358 1
 5138   365   361 1
 5139   365   362 1
 5140   366   363 1
 5141   366   364 1
 5142   371   367 1
 5143   371   368 1
 5144   372   369 1
 5145   372   370 1
 5146   377   373 1
 5147   377   374 1
 5148   378   375 1
 5149   378   376 1
 5150   383   379 1
 5151   383   380 1
 5152   384   381 1
 5153   384   382 1
 5154   389   385 1
 5155   389   386 1
 5156   390   387 1
 5157   390   388 1
 5158   395   391 1
 5159   395   392 1
 5160   396   393 1
 5161   396   394 1
 5162   401   397 1
 5163   401   398 1
 5164   402   399 1
 5165   402   400 1
 5166   407   403 1
 5167   407   404 1
 5168   408   405 1
 5169   408   406 1
 5170   413   409 1
 5171   413   410 1
 5172   414   411 1
 5173   414   412 1
 5174   419   415 1
 5175   419   416 1
 5176   420   417 1
 5177   420   418 1
 5178   425   421 1
 5179   425   422 1
 5180   426   423 1
 5181   426   424 1
 5182   431   427 1
 5183   431   428 1
 5184   432   429 1
 5185   432   430 1
 5186   437   433 1
 5187   437   434 1
 5188   438   435 1
 5189   438   436 1
 5190   443   439 1
 5191   443   440 1
 5192   444   441 1
 5193   444   442 1
 5194   449   445 1
 5195   449   446 1
 5196   450   447 1
 5197   450   448 1
 5198   455   451 1
 5199   455   452 1
 5200   456   453 1
 5201   456   454 1
 5202   461   457 1
 5203   461   458 1
 5204   462   459 1
 5205   462   460 1
 5206   467   463 1
 5207   467   464 1
 5208   468   465 1
 5209   468   466 1
 5210   473   469 1
 5211   473   470 1
 5212   474   471 1
 5213   474   472 1
 5214   479   475 1
 5215   479   476 1
 5216   480   477 1
 5217   480   478 1
 5218   485   481 1
 5219   485   482 1
 5220   486   483 1
 5221   486   484 1
 5222   491   487 1
 5223   491   488 1
 5224   492   489 1
 5225   492   490 1
 5226   497   493 1
 5227   497   494 1
 5228   498   495 1
 5229   498   496 1
 5230   503   499 1
 5231   503   500 1
 5232   504   501 1
 5233   504   502 1
 5234   509   505 1
 5235   509   506 1
 5236   510   507 1
 5237   510   508 1
 5238   515   511 1
 5239   515   512 1
 5240   516   513 1
 5241   516   514 1
 5242   521   517 1
 5243   521   518 1
 5244   522   519 1
 5245   522   520 1
 5246   527   523 1
 5247   527   524 1
 5248   528   525 1
 5249   528   526 1
 5250   533   529 1
 5251   533   530 1
 5252   534   531 1
 5253   534   532 1
 5254   539   535 1
 5255   539   536 1
 5256   540   537 1
 5257   540   538 1
 5258   545   541 1
 5259   545   542 1
 5260   546   543 1
 5261   546   544 1
 5262   551   547 1
 5263   551   548 1
 5264   552   549 1
 5265   552   550 1
 5266   557   553 1
 5267   557   554 1
 5268   558   555 1
 5269   558   556 1
 5270   563   559 1
 5271   563   560 1
 5272   564   561 1
 5273   564   562 1
 5274   569   565 1
 5275   569   566 1
 5276   570   567 1
 5277   570   568 1
 5278   575   571 1
 5279   575   572 1
 5280   576   573 1
 5281   576   574 1
 5282   581   577 1
 5283   581   578 1
 5284   582   579 1
 5285   582   580 1
 5286   587   583 1
 5287   587   584 1
 5288   588   585 1
 5289   588   586 1
 5290   593   589 1
 5291   593   590 1
 5292   594   591 1
 5293   594   592 1
 5294   599   595 1
 5295   599   596 1
 5296   600   597 1
 5297   600   598 1
 5298   605   601 1
 5299   605   602 1
 5300   606   603 1
 5301   606   604 1
 5302   611   607 1
 5303   611   608 1
 5304   612   609 1
 5305   612   610 1
 5306   617   613 1
 5307   617   614 1
 5308   618   615 1
 5309   618   616 1
 5310   623   619 1
 5311   623   620 1
 5312   624   621 1
 5313   624   622 1
 5314   629   625 1
 5315   629   626 1
 5316   630   627 1
 5317   630   628 1
 5318   635   631 1
 5319   635   632 1
 5320   636   633 1
 5321   636   634 1
 5322   641   637 1
 5323   641   638 1
 5324   642   639 1
 5325   642   640 1
 5326   647   643 1
 5327   647   644 1
 5328   648   645 1
 5329   648   646 1
 5330   653   649 1
 5331   653   650 1
 5332   654   651 1
 5333   654   652 1
 5334   659   655 1
 5335   659   656 1
 5336   660   657 1
 5337   660   658 1
 5338   665   661 1
 5339   665   662 1
 5340   666   663 1
 5341   666   664 1
 5342   671   667 1
 5343   671   668 1
 5344   672   669 1
 5345   672   670 1
 5346   677   673 1
 5347   677   674 1
 5348   678   675 1
 5349   678   676 1
 5350   683   679 1
 5351   683   680 1
 5352   684   681 1
 5353   684   682 1
 5354   689   685 1
 5355   689   686 1
 5356   690   687 1
 5357   690   688 1
 5358   695   691 1
 5359   695   692 1
 5360   696   693 1
 5361   696   694 1
 5362   701   697 1
 5363   701   698 1
 5364   702   699 1
 5365   702   700 1
 5366   707   703 1
 5367   707   704 1
 5368   708   705 1
 5369   708   706 1
 5370   713   709 1
 5371   713   710 1
 5372   714   711 1
 5373   714   712 1
 5374   719   715 1
 5375   719   716 1
 5376   720   717 1
 5377   720   718 1
 5378   725   721 1
 5379   725   722 1
 5380   726   723 1
 5381   726   724 1
 5382   731   727 1
 5383   731   728 1
 5384   732   729 1
 5385   732   730 1
 5386   737   733 1
 5387   737   734 1
 5388   738   735 1
 5389   738   736 1
 5390   743   739 1
 5391   743   740 1
 5392   744   741 1
 5393   744   742 1
 5394   749   745 1
 5395   749   746 1
 5396   750   747 1
 5397   750   748 1
 5398   755   751 1
 5399   755   752 1
 5400   756   753 1
 5401   756   754 1
 5402   761   757 1
 5403   761   758 1
 5404   762   759 1
 5405   762   760 1
 5406   767   763 1
 5407   767   764 1
 5408   768   765 1
 5409   768   766 1
 5410   773   769 1
 5411   773   770 1
 5412   774   771 1
 5413   774   772 1
 5414   779   775 1
 5415   779   776 1
 5416   780   777 1
 5417   780   778 1
 5418   785   781 1
 5419   785   782 1
 5420   786   783 1
 5421   786   784 1
 5422   791   787 1
 5423   791   788 1
 5424   792   789 1
 5425   792   790 1
 5426   797   793 1
 5427   797   794 1
 5428   798   795 1
 5429   798   796 1
 5430   803   799 1
 5431   803   800 1
 5432   804   801 1
 5433   804   802 1
 5434   809   805 1
 5435   809   806 1
 5436   810   807 1
 5437   810   808 1
 5438   815   811 1
 5439   815   812 1
 5440   816   813 1
 5441   816   814 1
 5442   821   817 1
 5443   821   818 1
 5444   822   819 1
 5445   822   820 1
 5446   827   823 1
 5447   827   824 1
 5448   828   825 1
 5449   828   826 1
 5450   833   829 1
 5451   833   830 1
 5452   834   831 1
 5453   834   832 1
 5454   839   835 1
 5455   839   836 1
 5456   840   837 1
 5457   840   838 1
 5458   845   841 1
 5459   845   842 1
 5460   846   843 1
 5461   846   844 1
 5462   851   847 1
 5463   851   848 1
 5464   852   849 1
 5465   852   850 1
 5466   857   853 1
 5467   857   854 1
 5468   858   855 1
 5469   858   856 1
 5470   863   859 1
 5471   863   860 1
 5472   864   861 1
 5473   864   862 1
 5474   869   865 1
 5475   869   866 1
 5476   870   867 1
 5477   870   868 1
 5478   875   871 1
 5479   875   872 1
 5480   876   873 1
 5481   876   874 1
 5482   881   877 1
 5483   881   878 1
 5484   882   879 1
 5485   882   880 1
 5486   887   883 1
 5487   887   884 1
 5488   888   885 1
 5489   888   886 1
 5490   893   889 1
 5491   893   890 1
 5492   894   891 1
 5493   894   892 1
 5494   899   895 1
 5495   899   896 1
 5496   900   897 1
 5497   900   898 1
 5498   905   901 1
 5499   905   902 1
 5500   906   903 1
 5501   906   904 1
 5502   911   907 1
 5503   911   908 1
 5504   912   909 1
 5505   912   910 1
 5506   917   913 1
 5507   917   914 1
 5508   918   915 1
 5509   918   916 1
 5510   923   919 1
 5511   923   920 1
 5512   924   921 1
 5513   924   922 1
 5514   929   925 1
 5515   929   926 1
 5516   930   927 1
 5517   930   928 1
 5518   935   931 1
 5519   935   932 1
 5520   936   933 1
 5521   936   934 1
 5522   941   937 1
 5523   941   938 1
 5524   942   939 1
 5525   942   940 1
 5526   947   943 1
 5527   947   944 1
 5528   948   945 1
 5529   948   946 1
 5530   953   949 1
 5531   953   950 1
 5532   954   951 1
 5533   954   952 1
 5534   959   955 1
 5535   959   956 1
 5536   960   957 1
 5537   960   958 1
 5538   965   961 1
 5539   965   962 1
 5540   966   963 1
 5541   966   964 1
 5542   971   967 1
 5543   971   968 1
 5544   972   969 1
 5545   972   970 1
 5546   977   973 1
 5547   977   974 1
 5548   978   975 1
 5549   978   976 1
 5550   983   979 1
 5551   983   980 1
 5552   984   981 1
 5553   984   982 1
 5554   989   985 1
 5555   989   986 1
 5556   990   987 1
 5557   990   988 1
 5558   995   991 1
 5559   995   992 1
 5560   996   993 1
 5561   996   994 1
 5562  1001   997 1
 5563  1001   998 1
 5564  1002   999 1
 5565  1002  1000 1
 5566  1007  1003 1
 5567  1007  1004 1
 5568  1008  1005 1
 5569  1008  1006 1
 5570  1013  1009 1
 5571  1013  1010 1
 5572  1014  1011 1
 5573  1014  1012 1
 5574  1019  1015 1
 5575  1019  1016 1
 5576  1020  1017 1
 5577  1020  1018 1
 5578  1025  1021 1
 5579  1025  1022 1
 5580  1026  1023 1
 5581  1026  1024 1
 5582  1031  1027 1
 5583  1031  1028 1
 5584  1032  1029 1
 5585  1032  1030 1
 5586  1037  1033 1
 5587  1037  1034 1
 5588  1038  1035 1
 5589  1038  1036 1
 5590  1043  1039 1
 5591  1043  1040 1
 5592  1044  1041 1
 5593  1044  1042 1
 5594  1049  1045 1
 5595  1049  1046 1
 5596  1050  1047 1
 5597  1050  1048 1
 5598  1055  1051 1
 5599  1055  1052 1
 5600  1056  1053 1
 5601  1056  1054 1
 5602  1061  1057 1
 5603  1061  1058 1
 5604  1062  1059 1
 5605  1062  1060 1
 5606  1067  1063 1
 5607  1067  1064 1
 5608  1068  1065 1
 5609  1068  1066 1
 5610  1073  1069 1
 5611  1073  1070 1
 5612  1074  1071 1
 5613  1074  1072 1
 5614  1079  1075 1
 5615  1079  1076 1
 5616  1080  1077 1
 5617  1080  1078 1
 5618  1085  1081 1
 5619  1085  1082 1
 5620  1086  1083 1
 5621  1086  1084 1
 5622  1091  1087 1
 5623  1091  1088 1
 5624  1092  1089 1
 5625  1092  1090 1
 5626  1097  1093 1
 5627  1097  1094 1
 5628  1098  1095 1
 5629  1098  1096 1
 5630  1103  1099 1
 5631  1103  1100 1
 5632  1104  1101 1
 5633  1104  1102 1
 5634  1109  1105 1
 5635  1109  1106 1
 5636  1110  1107 1
 5637  1110  1108 1
 5638  1115  1111 1
 5639  1115  1112 1
 5640  1116  1113 1
 5641  1116  1114 1
 5642  1121  1117 1
 5643  1121  1118 1
 5644  1122  1119 1
 5645  1122  1120 1
 5646  1127  1123 1
 5647  1127  1124 1
 5648  1128  1125 1
 5649  1128  1126 1
 5650  1133  1129 1
 5651  1133  1130 1
 5652  1134  1131 1
 5653  1134  1132 1
 5654  1139  1135 1
 5655  1139  1136 1
 5656  1140  1137 1
 5657  1140  1138 1
 5658  1145  1141 1
 5659  1145  1142 1
 5660  1146  1143 1
 5661  1146  1144 1
 5662  1151  1147 1
 5663  1151  1148 1
 5664  1152  1149 1
 5665  1152  1150 1
 5666  1157  1153 1
 5667  1157  1154 1
 5668  1158  1155 1
 5669  1158  1156 1
 5670  1163  1159 1
 5671  1163  1160 1
 5672  1164  1161 1
 5673  1164  1162 1
 5674  1169  1165 1
 5675  1169  1166 1
 5676  1170  1167 1
 5677  1170  1168 1
 5678  1175  1171 1
 5679  1175  1172 1
 5680  1176  1173 1
 5681  1176  1174 1
 5682  1181  1177 1
 5683  1181  1178 1
 5684  1182  1179 1
 5685  1182  1180 1
 5686  1187  1183 1
 5687  1187  1184 1
 5688  1188  1185 1
 5689  1188  1186 1
 5690  1193  1189 1
 5691  1193  1190 1
 5692  1194  1191 1
 5693  1194  1192 1
 5694  1199  1195 1
 5695  1199  1196 1
 5696  1200  1197 1
 5697  1200  1198 1
 5698  1205  1201 1
 5699  1205  1202 1
 5700  1206  1203 1
 5701  1206  1204 1
 5702  1211  1207 1
 5703  1211  1208 1
 5704  1212  1209 1
 5705  1212  1210 1
 5706  1217  1213 1
 5707  1217  1214 1
 5708  1218  1215 1
 5709  1218  1216 1
 5710  1223  1219 1
 5711  1223  1220 1
 5712  1224  1221 1
 5713  1224  1222 1
 5714  1229  1225 1
 5715  1229  1226 1
 5716  1230  1227 1
 5717  1230  1228 1
 5718  1235  1231 1
 5719  1235  1232 1
 5720  1236  1233 1
 5721  1236  1234 1
 5722  1241  1237 1
 5723  1241  1238 1
 5724  1242  1239 1
 5725  1242  1240 1
 5726  1247  1243 1
 5727  1247  1244 1
 5728  1248  1245 1
 5729  1248  1246 1
 5730  1253  1249 1
 5731  1253  1250 1
 5732  1254  1251 1
 5733  1254  1252 1
 5734  1259  1255 1
 5735  1259  1256 1
 5736  1260  1257 1
 5737  1260  1258 1
 5738  1265  1261 1
 5739  1265  1262 1
 5740  1266  1263 1
 5741  1266  1264 1
 5742  1271  1267 1
 5743  1271  1268 1
 5744  1272  1269 1
 5745  1272  1270 1
 5746  1277  1273 1
 5747  1277  1274 1
 5748  1278  1275 1
 5749  1278  1276 1
 5750  1283  1279 1
 5751  1283  1280 1
 5752  1284  1281 1
 5753  1284  1282 1
 5754  1289  1285 1
 5755  1289  1286 1
 5756  1290  1287 1
 5757  1290  1288 1
 5758  1295  1291 1
 5759  1295  1292 1
 5760  1296  1293 1
 5761  1296  1294 1
 5762  1301  1297 1
 5763  1301  1298 1
 5764  1302  1299 1
 5765  1302  1300 1
 5766  1307  1303 1
 5767  1307  1304 1
 5768  1308  1305 1
 5769  1308  1306 1
 5770  1313  1309 1
 5771  1313  1310 1
 5772  1314  1311 1
 5773  1314  1312 1
 5774  1319  1315 1
 5775  1319  1316 1
 5776  1320  1317 1
 5777  1320  1318 1
 5778  1325  1321 1
 5779  1325  1322 1
 5780  1326  1323 1
 5781  1326  1324 1
 5782  1331  1327 1
 5783  1331  1328 1
 5784  1332  1329 1
 5785  1332  1330 1
 5786  1337  1333 1
 5787  1337  1334 1
 5788  1338  1335 1
 5789  1338  1336 1
 5790  1343  1339 1
 5791  1343  1340 1
 5792  1344  1341 1
 5793  1344  1342 1
 5794  1349  1345 1
 5795  1349  1346 1
 5796  1350  1347 1
 5797  1350  1348 1
 5798  1355  1351 1
 5799  1355  1352 1
 5800  1356  1353 1
 5801  1356  1354 1
 5802  1361  1357 1
 5803  1361  1358 1
 5804  1362  1359 1
 5805  1362  1360 1
 5806  1367  1363 1
 5807  1367  1364 1
 5808  1368  1365 1
 5809  1368  1366 1
 5810  1373  1369 1
 5811  1373  1370 1
 5812  1374  1371 1
 5813  1374  1372 1
 5814  1379  1375 1
 5815  1379  1376 1
 5816  1380  1377 1
 5817  1380  1378 1
 5818  1385  1381 1
 5819  1385  1382 1
 5820  1386  1383 1
 5821  1386  1384 1
 5822  1391  1387 1
 5823  1391  1388 1
 5824  1392  1389 1
 5825  1392  1390 1
 5826  1397  1393 1
 5827  1397  1394 1
 5828  1398  1395 1
 5829  1398  1396 1
 5830  1403  1399 1
 5831  1403  1400 1
 5832  1404  1401 1
 5833  1404  1402 1
 5834  1409  1405 1
 5835  1409  1406 1
 5836  1410  1407 1
 5837  1410  1408 1
 5838  1415  1411 1
 5839  1415  1412 1
 5840  1416  1413 1
 5841  1416  1414 1
 5842  1421  1417 1
 5843  1421  1418 1
 5844  1422  1419 1
 5845  1422  1420 1
 5846  1427  1423 1
 5847  1427  1424 1
 5848  1428  1425 1
 5849  1428  1426 1
 5850  1433  1429 1
 5851  1433  1430 1
 5852  1434  1431 1
 5853  1434  1432 1
 5854  1439  1435 1
 5855  1439  1436 1
 5856  1440  1437 1
 5857  1440  1438 1
 5858  1445  1441 1
 5859  1445  1442 1
 5860  1446  1443 1
 5861  1446  1444 1
 5862  1451  1447 1
 5863  1451  1448 1
 5864  1452  1449 1
 5865  1452  1450 1
 5866  1457  1453 1
 5867  1457  1454 1
 5868  1458  1455 1
 5869  1458  1456 1
 5870  1463  1459 1
 5871  1463  1460 1
 5872  1464  1461 1
 5873  1464  1462 1
 5874  1469  1465 1
 5875  1469  1466 1
 5876  1470  1467 1
 5877  1470  1468 1
 5878  1475  1471 1
 5879  1475  1472 1
 5880  1476  1473 1
 5881  1476  1474 1
 5882  1481  1477 1
 5883  1481  1478 1
 5884  1482  1479 1
 5885  1482  1480 1
 5886  1487  1483 1
 5887  1487  1484 1
 5888  1488  1485 1
 5889  1488  1486 1
 5890  1493  1489 1
 5891  1493  1490 1
 5892  1494  1491 1
 5893  1494  1492 1
 5894  1499  1495 1
 5895  1499  1496 1
 5896  1500  1497 1
 5897  1500  1498 1
 5898  1505  1501 1
 5899  1505  1502 1
 5900  1506  1503 1
 5901  1506  1504 1
 5902  1511  1507 1
 5903  1511  1508 1
 5904  1512  1509 1
 5905  1512  1510 1
 5906  1517  1513 1
 5907  1517  1514 1
 5908  1518  1515 1
 5909  1518  1516 1
 5910  1523  1519 1
 5911  1523  1520 1
 5912  1524  1521 1
 5913  1524  1522 1
 5914  1529  1525 1
 5915  1529  1526 1
 5916  1530  1527 1
 5917  1530  1528 1
 5918  1535  1531 1
 5919  1535  1532 1
 5920  1536  1533 1
 5921  1536  1534 1
 5922  1541  1537 1
 5923  1541  1538 1
 5924  1542  1539 1
 5925  1542  1540 1
 5926  1547  1543 1
 5927  1547  1544 1
 5928  1548  1545 1
 5929  1548  1546 1
 5930  1553  1549 1
 5931  1553  1550 1
 5932  1554  1551 1
 5933  1554  1552 1
 5934  1559  1555 1
 5935  1559  1556 1
 5936  1560  1557 1
 5937  1560  1558 1
 5938  1565  1561 1
 5939  1565  1562 1
 5940  1566  1563 1
 5941  1566  1564 1
 5942  1571  1567 1
 5943  1571  1568 1
 5944  1572  1569 1
 5945  1572  1570 1
 5946  1577  1573 1
 5947  1577  1574 1
 5948  1578  1575 1
 5949  1578  1576 1
 5950  1583  1579 1
 5951  1583  1580 1
 5952  1584  1581 1
 5953  1584  1582 1
 5954  1589  1585 1
 5955  1589  1586 1
 5956  1590  1587 1
 5957  1590  1588 1
 5958  1595  1591 1
 5959  1595  1592 1
 5960  1596  1593 1
 5961  1596  1594 1
 5962  1601  1597 1
 5963  1601  1598 1
 5964  1602  1599 1
 5965  1602  1600 1
 5966  1607  1603 1
 5967  1607  1604 1
 5968  1608  1605 1
 5969  1608  1606 1
 5970  1613  1609 1
 5971  1613  1610 1
 5972  1614  1611 1
 5973  1614  1612 1
 5974  1619  1615 1
 5975  1619  1616 1
 5976  1620  1617 1
 5977  1620  1618 1
 5978  1625  1621 1
 5979  1625  1622 1
 5980  1626  1623 1
 5981  1626  1624 1
 5982  1631  1627 1
 5983  1631  1628 1
 5984  1632  1629 1
 5985  1632  1630 1
 5986  1637  1633 1
 5987  1637  1634 1
 5988  1638  1635 1
 5989  1638  1636 1
 5990  1643  1639 1
 5991  1643  1640 1
 5992  1644  1641 1
 5993  1644  1642 1
 5994  1649  1645 1
 5995  1649  1646 1
 5996  1650  1647 1
 5997  1650  1648 1
 5998  1655  1651 1
 5999  1655  1652 1
 6000  1656  1653 1
 6001  1656  1654 1
 6002  1661  1657 1
 6003  1661  1658 1
 6004  1662  1659 1
 6005  1662  1660 1
 6006  1667  1663 1
 6007  1667  1664 1
 6008  1668  1665 1
 6009  1668  1666 1
 6010  1673  1669 1
 6011  1673  1670 1
 6012  1674  1671 1
 6013  1674  1672 1
 6014  1679  1675 1
 6015  1679  1676 1
 6016  1680  1677 1
 6017  1680  1678 1
 6018  1685  1681 1
 6019  1685  1682 1
 6020  1686  1683 1
 6021  1686  1684 1
 6022  1691  1687 1
 6023  1691  1688 1
 6024  1692  1689 1
 6025  1692  1690 1
 6026  1697  1693 1
 6027  1697  1694 1
 6028  1698  1695 1
 6029  1698  1696 1
 6030  1703  1699 1
 6031  1703  1700 1
 6032  1704  1701 1
 6033  1704  1702 1
 6034  1709  1705 1
 6035  1709  1706 1
 6036  1710  1707 1
 6037  1710  1708 1
 6038  1715  1711 1
 6039  1715  1712 1
 6040  1716  1713 1
 6041  1716  1714 1
 6042  1721  1717 1
 6043  1721  1718 1
 6044  1722  1719 1
 6045  1722  1720 1
 6046  1727  1723 1
 6047  1727  1724 1
 6048  1728  1725 1
 6049  1728  1726 1
 6050  1733  1729 1
 6051  1733  1730 1
 6052  1734  1731 1
 6053  1734  1732 1
 6054  1739  1735 1
 6055  1739  1736 1
 6056  1740  1737 1
 6057  1740  1738 1
 6058  1745  1741 1
 6059  1745  1742 1
 6060  1746  1743 1
 6061  1746  1744 1
 6062  1751  1747 1
 6063  1751  1748 1
 6064  1752  1749 1
 6065  1752  1750 1
 6066  1757  1753 1
 6067  1757  1754 1
 6068  1758  1755 1
 6069  1758  1756 1
 6070  1763  1759 1
 6071  1763  1760 1
 6072  1764  1761 1
 6073  1764  1762 1
 6074  1769  1765 1
 6075  1769  1766 1
 6076  1770  1767 1
 6077  1770  1768 1
 6078  1775  1771 1
 6079  1775  1772 1
 6080  1776  1773 1
 6081  1776  1774 1
 6082  1781  1777 1
 6083  1781  1778 1
 6084  1782  1779 1
 6085  1782  1780 1
 6086  1787  1783 1
 6087  1787  1784 1
 6088  1788  1785 1
 6089  1788  1786 1
 6090  1793  1789 1
 6091  1793  1790 1
 6092  1794  1791 1
 6093  1794  1792 1
 6094  1799  1795 1
 6095  1799  1796 1
 6096  1800  1797 1
 6097  1800  1798 1
 6098  1805  1801 1
 6099  1805  1802 1
 6100  1806  1803 1
 6101  1806  1804 1
 6102  1811  1807 1
 6103  1811  1808 1
 6104  1812  1809 1
 6105  1812  1810 1
 6106  1817  1813 1
 6107  1817  1814 1
 6108  1818  1815 1
 6109  1818  1816 1
 6110  1823  1819 1
 6111  1823  1820 1
 6112  1824  1821 1
 6113  1824  1822 1
 6114  1829  1825 1
 6115  1829  1826 1
 6116  1830  1827 1
 6117  1830  1828 1
 6118  1835  1831 1
 6119  1835  1832 1
 6120  1836  1833 1
 6121  1836  1834 1
 6122  1841  1837 1
 6123  1841  1838 1
 6124  1842  1839 1
 6125  1842  1840 1
 6126  1847  1843 1
 6127  1847  1844 1
 6128  1848  1845 1
 6129  1848  1846 1
 6130  1853  1849 1
 6131  1853  1850 1
 6132  1854  1851 1
 6133  1854  1852 1
 6134  1859  1855 1
 6135  1859  1856 1
 6136  1860  1857 1
 6137  1860  1858 1
 6138  1865  1861 1
 6139  1865  1862 1
 6140  1866  1863 1
 6141  1866  1864 1
 6142  1871  1867 1
 6143  1871  1868 1
 6144  1872  1869 1
 6145  1872  1870 1
 6146  1877  1873 1
 6147  1877  1874 1
 6148  1878  1875 1
 6149  1878  1876 1
 6150  1883  1879 1
 6151  1883  1880 1
 6152  1884  1881 1
 6153  1884  1882 1
 6154  1889  1885 1
 6155  1889  1886 1
 6156  1890  1887 1
 6157  1890  1888 1
 6158  1895  1891 1
 6159  1895  1892 1
 6160  1896  1893 1
 6161  1896  1894 1
 6162  1901  1897 1
 6163  1901  1898 1
 6164  1902  1899 1
 6165  1902  1900 1
 6166  1907  1903 1
 6167  1907  1904 1
 6168  1908  1905 1
 6169  1908  1906 1
 6170  1913  1909 1
 6171  1913  1910 1
 6172  1914  1911 1
 6173  1914  1912 1
 6174  1919  1915 1
 6175  1919  1916 1
 6176  1920  1917 1
 6177  1920  1918 1
 6178  1925  1921 1
 6179  1925  1922 1
 6180  1926  1923 1
 6181  1926  1924 1
 6182  1931  1927 1
 6183  1931  1928 1
 6184  1932  1929 1
 6185  1932  1930 1
 6186  1937  1933 1
 6187  1937  1934 1
 6188  1938  1935 1
 6189  1938  1936 1
 6190  1943  1939 1
 6191  1943  1940 1
 6192  1944  1941 1
 6193  1944  1942 1
 6194  1949  1945 1
 6195  1949  1946 1
 6196  1950  1947 1
 6197  1950  1948 1
 6198  1955  1951 1
 6199  1955  1952 1
 6200  1956  1953 1
 6201  1956  1954 1
 6202  1961  1957 1
 6203  1961  1958 1
 6204  1962  1959 1
 6205  1962  1960 1
 6206  1967  1963 1
 6207  1967  1964 1
 6208  1968  1965 1
 6209  1968  1966 1
 6210  1973  1969 1
 6211  1973  1970 1
 6212  1974  1971 1
 6213  1974  1972 1
 6214  1979  1975 1
 6215  1979  1976 1
 6216  1980  1977 1
 6217  1980  1978 1
 6218  1985  1981 1
 6219  1985  1982 1
 6220  1986  1983 1
 6221  1986  1984 1
 6222  1991  1987 1
 6223  1991  1988 1
 6224  1992  1989 1
 6225  1992  1990 1
 6226  1997  1993 1
 6227  1997  1994 1
 6228  1998  1995 1
 6229  1998  1996 1
 6230  2003  1999 1
 6231  2003  2000 1
 6232  2004  2001 1
 6233  2004  2002 1
 6234  2009  2005 1
 6235  2009  2006 1
 6236  2010  2007 1
 6237  2010  2008 1
 6238  2015  2011 1
 6239  2015  2012 1
 6240  2016  2013 1
 6241  2016  2014 1
 6242  2021  2017 1
 6243  2021  2018 1
 6244  2022  2019 1
 6245  2022  2020 1
 6246  2027  2023 1
 6247  2027  2024 1
 6248  2028  2025 1
 6249  2028  2026 1
 6250  2033  2029 1
 6251  2033  2030 1
 6252  2034  2031 1
 6253  2034  2032 1
 6254  2039  2035 1
 6255  2039  2036 1
 6256  2040  2037 1
 6257  2040  2038 1
 6258  2045  2041 1
 6259  2045  2042 1
 6260  2046  2043 1
 6261  2046  2044 1
 6262  2051  2047 1
 6263  2051  2048 1
 6264  2052  2049 1
 6265  2052  2050 1
 6266  2057  2053 1
 6267  2057  2054 1
 6268  2058  2055 1
 6269  2058  2056 1
 6270  2063  2059 1
 6271  2063  2060 1
 6272  2064  2061 1
 6273  2064  2062 1
 6274  2069  2065 1
 6275  2069  2066 1
 6276  2070  2067 1
 6277  2070  2068 1
 6278  2075  2071 1
 6279  2075  2072 1
 6280  2076  2073 1
 6281  2076  2074 1
 6282  2081  2077 1
 6283  2081  2078 1
 6284  2082  2079 1
 6285  2082  2080 1
 6286  2087  2083 1
 6287  2087  2084 1
 6288  2088  2085 1
 6289  2088  2086 1
 6290  2093  2089 1
 6291  2093  2090 1
 6292  2094  2091 1
 6293  2094  2092 1
 6294  2099  2095 1
 6295  2099  2096 1
 6296  2100  2097 1
 6297  2100  2098 1
 6298  2105  2101 1
 6299  2105  2102 1
 6300  2106  2103 1
 6301  2106  2104 1
 6302  2111  2107 1
 6303  2111  2108 1
 6304  2112  2109 1
 6305  2112  2110 1
 6306  2117  2113 1
 6307  2117  2114 1
 6308  2118  2115 1
 6309  2118  2116 1
 6310  2123  2119 1
 6311  2123  2120 1
 6312  2124  2121 1
 6313  2124  2122 1
 6314  2129  2125 1
 6315  2129  2126 1
 6316  2130  2127 1
 6317  2130  2128 1
 6318  2135  2131 1
 6319  2135  2132 1
 6320  2136  2133 1
 6321  2136  2134 1
 6322  2141  2137 1
 6323  2141  2138 1
 6324  2142  2139 1
 6325  2142  2140 1
 6326  2147  2143 1
 6327  2147  2144 1
 6328  2148  2145 1
 6329  2148  2146 1
 6330  2153  2149 1
 6331  2153  2150 1
 6332  2154  2151 1
 6333  2154  2152 1
 6334  2159  2155 1
 6335  2159  2156 1
 6336  2160  2157 1
 6337  2160  2158 1
 6338  2165  2161 1
 6339  2165  2162 1
 6340  2166  2163 1
 6341  2166  2164 1
 6342  2171  2167 1
 6343  2171  2168 1
 6344  2172  2169 1
 6345  2172  2170 1
 6346  2177  2173 1
 6347  2177  2174 1
 6348  2178  2175 1
 6349  2178  2176 1
 6350  2183  2179 1
 6351  2183  2180 1
 6352  2184  2181 1
 6353  2184  2182 1
 6354  2189  2185 1
 6355  2189  2186 1
 6356  2190  2187 1
 6357  2190  2188 1
 6358  2195  2191 1
 6359  2195  2192 1
 6360  2196  2193 1
 6361  2196  2194 1
 6362  2201  2197 1
 6363  2201  2198 1
 6364  2202  2199 1
 6365  2202  2200 1
 6366  2207  2203 1
 6367  2207  2204 1
 6368  2208  2205 1
 6369  2208  2206 1
 6370  2213  2209 1
 6371  2213  2210 1
 6372  2214  2211 1
 6373  2214  2212 1
 6374  2219  2215 1
 6375  2219  2216 1
 6376  2220  2217 1
 6377  2220  2218 1
 6378  2225  2221 1
 6379  2225  2222 1
 6380  2226  2223 1
 6381  2226  2224 1
 6382  2231  2227 1
 6383  2231  2228 1
 6384  2232  2229 1
 6385  2232  2230 1
 6386  2237  2233 1
 6387  2237  2234 1
 6388  2238  2235 1
 6389  2238  2236 1
 6390  2243  2239 1
 6391  2243  2240 1
 6392  2244  2241 1
 6393  2244  2242 1
 6394  2249  2245 1
 6395  2249  2246 1
 6396  2250  2247 1
 6397  2250  2248 1
 6398  2255  2251 1
 6399  2255  2252 1
 6400  2256  2253 1
 6401  2256  2254 1
 6402  2261  2257 1
 6403  2261  2258 1
 6404  2262  2259 1
 6405  2262  2260 1
 6406  2267  2263 1
 6407  2267  2264 1
 6408  2268  2265 1
 6409  2268  2266 1
 6410  2273  2269 1
 6411  2273  2270 1
 6412  2274  2271 1
 6413  2274  2272 1
 6414  2279  2275 1
 6415  2279  2276 1
 6416  2280  2277 1
 6417  2280  2278 1
 6418  2285  2281 1
 6419  2285  2282 1
 6420  2286  2283 1
 6421  2286  2284 1
 6422  2291  2287 1
 6423  2291  2288 1
 6424  2292  2289 1
 6425  2292  2290 1
 6426  2297  2293 1
 6427  2297  2294 1
 6428  2298  2295 1
 6429  2298  2296 1
 6430  2303  2299 1
 6431  2303  2300 1
 6432  2304  2301 1
 6433  2304  2302 1
 6434  2309  2305 1
 6435  2309  2306 1
 6436  2310  2307 1
 6437  2310  2308 1
 6438  2315  2311 1
 6439  2315  2312 1
 6440  2316  2313 1
 6441  2316  2314 1
 6442  2321  2317 1
 6443  2321  2318 1
 6444  2322  2319 1
 6445  2322  2320 1
 6446  2327  2323 1
 6447  2327  2324 1
 6448  2328  2325 1
 6449  2328  2326 1
 6450  2333  2329 1
 6451  2333  2330 1
 6452  2334  2331 1
 6453  2334  2332 1
 6454  2339  2335 1
 6455  2339  2336 1
 6456  2340  2337 1
 6457  2340  2338 1
 6458  2345  2341 1
 6459  2345  2342 1
 6460  2346  2343 1
 6461  2346  2344 1
 6462  2351  2347 1
 6463  2351  2348 1
 6464  2352  2349 1
 6465  2352  2350 1
 6466  2357  2353 1
 6467  2357  2354 1
 6468  2358  2355 1
 6469  2358  2356 1
 6470  2363  2359 1
 6471  2363  2360 1
 6472  2364  2361 1
 6473  2364  2362 1
 6474  2369  2365 1
 6475  2369  2366 1
 6476  2370  2367 1
 6477  2370  2368 1
 6478  2375  2371 1
 6479  2375  2372 1
 6480  2376  2373 1
 6481  2376  2374 1
 6482  2381  2377 1
 6483  2381  2378 1
 6484  2382  2379 1
 6485  2382  2380 1
 6486  2387  2383 1
 6487  2387  2384 1
 6488  2388  2385 1
 6489  2388  2386 1
 6490  2393  2389 1
 6491  2393  2390 1
 6492  2394  2391 1
 6493  2394  2392 1
 6494  2399  2395 1
 6495  2399  2396 1
 6496  2400  2397 1
 6497  2400  2398 1
 6498  2405  2401 1
 6499  2405  2402 1
 6500  2406  2403 1
 6501  2406  2404 1
 6502  2411  2407 1
 6503  2411  2408 1
 6504  2412  2409 1
 6505  2412  2410 1
 6506  2417  2413 1
 6507  2417  2414 1
 6508  2418  2415 1
 6509  2418  2416 1
 6510  2423  2419 1
 6511  2423  2420 1
 6512  2424  2421 1
 6513  2424  2422 1
 6514  2429  2425 1
 6515  2429  2426 1
 6516  2430  2427 1
 6517  2430  2428 1
 6518  2435  2431 1
 6519  2435  2432 1
 6520  2436  2433 1
 6521  2436  2434 1
 6522  2441  2437 1
 6523  2441  2438 1
 6524  2442  2439 1
 6525  2442  2440 1
 6526  2447  2443 1
 6527  2447  2444 1
 6528  2448  2445 1
 6529  2448  2446 1
 6530  2453  2449 1
 6531  2453  2450 1
 6532  2454  2451 1
 6533  2454  2452 1
 6534  2459  2455 1
 6535  2459  2456 1
 6536  2460  2457 1
 6537  2460  2458 1
 6538  2465  2461 1
 6539  2465  2462 1
 6540  2466  2463 1
 6541  2466  2464 1
 6542  2471  2467 1
 6543  2471  2468 1
 6544  2472  2469 1
 6545  2472  2470 1
 6546  2477  2473 1
 6547  2477  2474 1
 6548  2478  2475 1
 6549  2478  2476 1
 6550  2483  2479 1
 6551  2483  2480 1
 6552  2484  2481 1
 6553  2484  2482 1
 6554  2489  2485 1
 6555  2489  2486 1
 6556  2490  2487 1
 6557  2490  2488 1
 6558  2495  2491 1
 6559  2495  2492 1
 6560  2496  2493 1
 6561  2496  2494 1
 6562  2501  2497 1
 6563  2501  2498 1
 6564  2502  2499 1
 6565  2502  2500 1
 6566  2507  2503 1
 6567  2507  2504 1
 6568  2508  2505 1
 6569  2508  2506 1
 6570  2513  2509 1
 6571  2513  2510 1
 6572  2514  2511 1
 6573  2514  2512 1
 6574  2519  2515 1
 6575  2519  2516 1
 6576  2520  2517 1
 6577  2520  2518 1
 6578  2525  2521 1
 6579  2525  2522 1
 6580  2526  2523 1
 6581  2526  2524 1
 6582  2531  2527 1
 6583  2531  2528 1
 6584  2532  2529 1
 6585  2532  2530 1
 6586  2537  2533 1
 6587  2537  2534 1
 6588  2538  2535 1
 6589  2538  2536 1
 6590  2543  2539 1
 6591  2543  2540 1
 6592  2544  2541 1
 6593  2544  2542 1
 6594  2549  2545 1
 6595  2549  2546 1
 6596  2550  2547 1
 6597  2550  2548 1
 6598  2555  2551 1
 6599  2555  2552 1
 6600  2556  2553 1
 6601  2556  2554 1
 6602  2561  2557 1
 6603  2561  2558 1
 6604  2562  2559 1
 6605  2562  2560 1
 6606  2567  2563 1
 6607  2567  2564 1
 6608  2568  2565 1
 6609  2568  2566 1
 6610  2573  2569 1
 6611  2573  2570 1
 6612  2574  2571 1
 6613  2574  2572 1
 6614  2579  2575 1
 6615  2579  2576 1
 6616  2580  2577 1
 6617  2580  2578 1
 6618  2585  2581 1
 6619  2585  2582 1
 6620  2586  2583 1
 6621  2586  2584 1
 6622  2591  2587 1
 6623  2591  2588 1
 6624  2592  2589 1
 6625  2592  2590 1
 6626  2597  2593 1
 6627  2597  2594 1
 6628  2598  2595 1
 6629  2598  2596 1
 6630  2603  2599 1
 6631  2603  2600 1
 6632  2604  2601 1
 6633  2604  2602 1
 6634  2609  2605 1
 6635  2609  2606 1
 6636  2610  2607 1
 6637  2610  2608 1
 6638  2615  2611 1
 6639  2615  2612 1
 6640  2616  2613 1
 6641  2616  2614 1
 6642  2621  2617 1
 6643  2621  2618 1
 6644  2622  2619 1
 6645  2622  2620 1
 6646  2627  2623 1
 6647  2627  2624 1
 6648  2628  2625 1
 6649  2628  2626 1
 6650  2633  2629 1
 6651  2633  2630 1
 6652  2634  2631 1
 6653  2634  2632 1
 6654  2639  2635 1
 6655  2639  2636 1
 6656  2640  2637 1
 6657  2640  2638 1
 6658  2645  2641 1
 6659  2645  2642 1
 6660  2646  2643 1
 6661  2646  2644 1
 6662  2651  2647 1
 6663  2651  2648 1
 6664  2652  2649 1
 6665  2652  2650 1
 6666  2657  2653 1
 6667  2657  2654 1
 6668  2658  2655 1
 6669  2658  2656 1
 6670  2663  2659 1
 6671  2663  2660 1
 6672  2664  2661 1
 6673  2664  2662 1
 6674  2669  2665 1
 6675  2669  2666 1
 6676  2670  2667 1
 6677  2670  2668 1
 6678  2675  2671 1
 6679  2675  2672 1
 6680  2676  2673 1
 6681  2676  2674 1
 6682  2681  2677 1
 6683  2681  2678 1
 6684  2682  2679 1
 6685  2682  2680 1
 6686  2687  2683 1
 6687  2687  2684 1
 6688  2688  2685 1
 6689  2688  2686 1
 6690  2693  2689 1
 6691  2693  2690 1
 6692  2694  2691 1
 6693  2694  2692 1
 6694  2699  2695 1
 6695  2699  2696 1
 6696  2700  2697 1
 6697  2700  2698 1
 6698  2705  2701 1
 6699  2705  2702 1
 6700  2706  2703 1
 6701  2706  2704 1
 6702  2711  2707 1
 6703  2711  2708 1
 6704  2712  2709 1
 6705  2712  2710 1
 6706  2717  2713 1
 6707  2717  2714 1
 6708  2718  2715 1
 6709  2718  2716 1
 6710  2723  2719 1
 6711  2723  2720 1
 6712  2724  2721 1
 6713  2724  2722 1
 6714  2729  2725 1
 6715  2729  2726 1
 6716  2730  2727 1
 6717  2730  2728 1
 6718  2735  2731 1
 6719  2735  2732 1
 6720  2736  2733 1
 6721  2736  2734 1
 6722  2741  2737 1
 6723  2741  2738 1
 6724  2742  2739 1
 6725  2742  2740 1
 6726  2747  2743 1
 6727  2747  2744 1
 6728  2748  2745 1
 6729  2748  2746 1
 6730  2753  2749 1
 6731  2753  2750 1
 6732  2754  2751 1
 6733  2754  2752 1
 6734  2759  2755 1
 6735  2759  2756 1
 6736  2760  2757 1
 6737  2760  2758 1
 6738  2765  2761 1
 6739  2765  2762 1
 6740  2766  2763 1
 6741  2766  2764 1
 6742  2771  2767 1
 6743  2771  2768 1
 6744  2772  2769 1
 6745  2772  2770 1
 6746  2777  2773 1
 6747  2777  2774 1
 6748  2778  2775 1
 6749  2778  2776 1
 6750  2783  2779 1
 6751  2783  2780 1
 6752  2784  2781 1
 6753  2784  2782 1
 6754  2789  2785 1
 6755  2789  2786 1
 6756  2790  2787 1
 6757  2790  2788 1
 6758  2795  2791 1
 6759  2795  2792 1
 6760  2796  2793 1
 6761  2796  2794 1
 6762  2801  2797 1
 6763  2801  2798 1
 6764  2802  2799 1
 6765  2802  2800 1
 6766  2807  2803 1
 6767  2807  2804 1
 6768  2808  2805 1
 6769  2808  2806 1
 6770  2813  2809 1
 6771  2813  2810 1
 6772  2814  2811 1
 6773  2814  2812 1
 6774  2819  2815 1
 6775  2819  2816 1
 6776  2820  2817 1
 6777  2820  2818 1
 6778  2825  2821 1
 6779  2825  2822 1
 6780  2826  2823 1
 6781  2826  2824 1
 6782  2831  2827 1
 6783  2831  2828 1
 6784  2832  2829 1
 6785  2832  2830 1
 6786  2837  2833 1
 6787  2837  2834 1
 6788  2838  2835 1
 6789  2838  2836 1
 6790  2843  2839 1
 6791  2843  2840 1
 6792  2844  2841 1
 6793  2844  2842 1
 6794  2849  2845 1
 6795  2849  2846 1
 6796  2850  2847 1
 6797  2850  2848 1
 6798  2855  2851 1
 6799  2855  2852 1
 6800  2856  2853 1
 6801  2856  2854 1
 6802  2861  2857 1
 6803  2861  2858 1
 6804  2862  2859 1
 6805  2862  2860 1
 6806  2867  2863 1
 6807  2867  2864 1
 6808  2868  2865 1
 6809  2868  2866 1
 6810  2873  2869 1
 6811  2873  2870 1
 6812  2874  2871 1
 6813  2874  2872 1
 6814  2879  2875 1
 6815  2879  2876 1
 6816  2880  2877 1
 6817  2880  2878 1
 6818  2885  2881 1
 6819  2885  2882 1
 6820  2886  2883 1
 6821  2886  2884 1
 6822  2891  2887 1
 6823  2891  2888 1
 6824  2892  2889 1
 6825  2892  2890 1
 6826  2897  2893 1
 6827  2897  2894 1
 6828  2898  2895 1
 6829  2898  2896 1
 6830  2903  2899 1
 6831  2903  2900 1
 6832  2904  2901 1
 6833  2904  2902 1
 6834  2909  2905 1
 6835  2909  2906 1
 6836  2910  2907 1
 6837  2910  2908 1
 6838  2915  2911 1
 6839  2915  2912 1
 6840  2916  2913 1
 6841  2916  2914 1
 6842  2921  2917 1
 6843  2921  2918 1
 6844  2922  2919 1
 6845  2922  2920 1
 6846  2927  2923 1
 6847  2927  2924 1
 6848  2928  2925 1
 6849  2928  2926 1
 6850  2933  2929 1
 6851  2933  2930 1
 6852  2934  2931 1
 6853  2934  2932 1
 6854  2939  2935 1
 6855  2939  2936 1
 6856  2940  2937 1
 6857  2940  2938 1
 6858  2945  2941 1
 6859  2945  2942 1
 6860  2946  2943 1
 6861  2946  2944 1
 6862  2951  2947 1
 6863  2951  2948 1
 6864  2952  2949 1
 6865  2952  2950 1
 6866  2957  2953 1
 6867  2957  2954 1
 6868  2958  2955 1
 6869  2958  2956 1
 6870  2963  2959 1
 6871  2963  2960 1
 6872  2964  2961 1
 6873  2964  2962 1
 6874  2969  2965 1
 6875  2969  2966 1
 6876  2970  2967 1
 6877  2970  2968 1
 6878  2975  2971 1
 6879  2975  2972 1
 6880  2976  2973 1
 6881  2976  2974 1
 6882  2981  2977 1
 6883  2981  2978 1
 6884  2982  2979 1
 6885  2982  2980 1
 6886  2987  2983 1
 6887  2987  2984 1
 6888  2988  2985 1
 6889  2988  2986 1
 6890  2993  2989 1
 6891  2993  2990 1
 6892  2994  2991 1
 6893  2994  2992 1
 6894  2999  2995 1
 6895  2999  2996 1
 6896  3000  2997 1
 6897  3000  2998 1
 6898  3005  3001 1
 6899  3005  3002 1
 6900  3006  3003 1
 6901  3006  3004 1
 6902  3011  3007 1
 6903  3011  3008 1
 6904  3012  3009 1
 6905  3012  3010 1
 6906  3017  3013 1
 6907  3017  3014 1
 6908  3018  3015 1
 6909  3018  3016 1
 6910  3023  3019 1
 6911  3023  3020 1
 6912  3024  3021 1
 6913  3024  3022 1
 6914  3029  3025 1
 6915  3029  3026 1
 6916  3030  3027 1
 6917  3030  3028 1
 6918  3035  3031 1
 6919  3035  3032 1
 6920  3036  3033 1
 6921  3036  3034 1
 6922  3041  3037 1
 6923  3041  3038 1
 6924  3042  3039 1
 6925  3042  3040 1
 6926  3047  3043 1
 6927  3047  3044 1
 6928  3048  3045 1
 6929  3048  3046 1
 6930  3053  3049 1
 6931  3053  3050 1
 6932  3054  3051 1
 6933  3054  3052 1
 6934  3059  3055 1
 6935  3059  3056 1
 6936  3060  3057 1
 6937  3060  3058 1
 6938  3065  3061 1
 6939  3065  3062 1
 6940  3066  3063 1
 6941  3066  3064 1
 6942  3071  3067 1
 6943  3071  3068 1
 6944  3072  3069 1
 6945  3072  3070 1
 6946  3077  3073 1
 6947  3077  3074 1
 6948  3078  3075 1
 6949  3078  3076 1
 6950  3083  3079 1
 6951  3083  3080 1
 6952  3084  3081 1
 6953  3084  3082 1
 6954  3089  3085 1
 6955  3089  3086 1
 6956  3090  3087 1
 6957  3090  3088 1
 6958  3095  3091 1
 6959  3095  3092 1
 6960  3096  3093 1
 6961  3096  3094 1
 6962  3101  3097 1
 6963  3101  3098 1
 6964  3102  3099 1
 6965  3102  3100 1
 6966  3107  3103 1
 6967  3107  3104 1
 6968  3108  3105 1
 6969  3108  3106 1
 6970  3113  3109 1
 6971  3113  3110 1
 6972  3114  3111 1
 6973  3114  3112 1
 6974  3119  3115 1
 6975  3119  3116 1
 6976  3120  3117 1
 6977  3120  3118 1
 6978  3125  3121 1
 6979  3125  3122 1
 6980  3126  3123 1
 6981  3126  3124 1
 6982  3131  3127 1
 6983  3131  3128 1
 6984  3132  3129 1
 6985  3132  3130 1
 6986  3137  3133 1
 6987  3137  3134 1
 6988  3138  3135 1
 6989  3138  3136 1
 6990  3143  3139 1
 6991  3143  3140 1
 6992  3144  3141 1
 6993  3144  3142 1
 6994  3149  3145 1
 6995  3149  3146 1
 6996  3150  3147 1
 6997  3150  3148 1
 6998  3155  3151 1
 6999  3155  3152 1
 7000  3156  3153 1
 7001  3156  3154 1
 7002  3161  3157 1
 7003  3161  3158 1
 7004  3162  3159 1
 7005  3162  3160 1
 7006  3167  3163 1
 7007  3167  3164 1
 7008  3168  3165 1
 7009  3168  3166 1
 7010  3173  3169 1
 7011  3173  3170 1
 7012  3174  3171 1
 7013  3174  3172 1
 7014  3179  3175 1
 7015  3179  3176 1
 7016  3180  3177 1
 7017  3180  3178 1
 7018  3185  3181 1
 7019  3185  3182 1
 7020  3186  3183 1
 7021  3186  3184 1
 7022  3191  3187 1
 7023  3191  3188 1
 7024  3192  3189 1
 7025  3192  3190 1
 7026  3197  3193 1
 7027  3197  3194 1
 7028  3198  3195 1
 7029  3198  3196 1
 7030  3203  3199 1
 7031  3203  3200 1
 7032  3204  3201 1
 7033  3204  3202 1
 7034  3209  3205 1
 7035  3209  3206 1
 7036  3210  3207 1
 7037  3210  3208 1
 7038  3215  3211 1
 7039  3215  3212 1
 7040  3216  3213 1
 7041  3216  3214 1
 7042  3221  3217 1
 7043  3221  3218 1
 7044  3222  3219 1
 7045  3222  3220 1
 7046  3227  3223 1
 7047  3227  3224 1
 7048  3228  3225 1
 7049  3228  3226 1
 7050  3233  3229 1
 7051  3233  3230 1
 7052  3234  3231 1
 7053  3234  3232 1
 7054  3239  3235 1
 7055  3239  3236 1
 7056  3240  3237 1
 7057  3240  3238 1
 7058  3245  3241 1
 7059  3245  3242 1
 7060  3246  3243 1
 7061  3246  3244 1
 7062  3251  3247 1
 7063  3251  3248 1
 7064  3252  3249 1
 7065  3252  3250 1
 7066  3257  3253 1
 7067  3257  3254 1
 7068  3258  3255 1
 7069  3258  3256 1
 7070  3263  3259 1
 7071  3263  3260 1
 7072  3264  3261 1
 7073  3264  3262 1
 7074  3269  3265 1
 7075  3269  3266 1
 7076  3270  3267 1
 7077  3270  3268 1
 7078  3275  3271 1
 7079  3275  3272 1
 7080  3276  3273 1
 7081  3276  3274 1
 7082  3281  3277 1
 7083  3281  3278 1
 7084  3282  3279 1
 7085  3282  3280 1
 7086  3287  3283 1
 7087  3287  3284 1
 7088  3288  3285 1
 7089  3288  3286 1
 7090  3293  3289 1
 7091  3293  3290 1
 7092  3294  3291 1
 7093  3294  3292 1
 7094  3299  3295 1
 7095  3299  3296 1
 7096  3300  3297 1
 7097  3300  3298 1
 7098  3305  3301 1
 7099  3305  3302 1
 7100  3306  3303 1
 7101  3306  3304 1
 7102  3311  3307 1
 7103  3311  3308 1
 7104  3312  3309 1
 7105  3312  3310 1
 7106  3317  3313 1
 7107  3317  3314 1
 7108  3318  3315 1
 7109  3318  3316 1
 7110  3323  3319 1
 7111  3323  3320 1
 7112  3324  3321 1
 7113  3324  3322 1
 7114  3329  3325 1
 7115  3329  3326 1
 7116  3330  3327 1
 7117  3330  3328 1
 7118  3335  3331 1
 7119  3335  3332 1
 7120  3336  3333 1
 7121  3336  3334 1
 7122  3341  3337 1
 7123  3341  3338 1
 7124  3342  3339 1
 7125  3342  3340 1
 7126  3347  3343 1
 7127  3347  3344 1
 7128  3348  3345 1
 7129  3348  3346 1
 7130  3353  3349 1
 7131  3353  3350 1
 7132  3354  3351 1
 7133  3354  3352 1
 7134  3359  3355 1
 7135  3359  3356 1
 7136  3360  3357 1
 7137  3360  3358 1
 7138  3365  3361 1
 7139  3365  3362 1
 7140  3366  3363 1
 7141  3366  3364 1
 7142  3371  3367 1
 7143  3371  3368 1
 7144  3372  3369 1
 7145  3372  3370 1
 7146  3377  3373 1
 7147  3377  3374 1
 7148  3378  3375 1
 7149  3378  3376 1
 7150  3383  3379 1
 7151  3383  3380 1
 7152  3384  3381 1
 7153  3384  3382 1
 7154  3389  3385 1
 7155  3389  3386 1
 7156  3390  3387 1
 7157  3390  3388 1
 7158  3395  3391 1
 7159  3395  3392 1
 7160  3396  3393 1
 7161  3396  3394 1
 7162  3401  3397 1
 7163  3401  3398 1
 7164  3402  3399 1
 7165  3402  3400 1
 7166  3407  3403 1
 7167  3407  3404 1
 7168  3408  3405 1
 7169  3408  3406 1
 7170  3413  3409 1
 7171  3413  3410 1
 7172  3414  3411 1
 7173  3414  3412 1
 7174  3419  3415 1
 7175  3419  3416 1
 7176  3420  3417 1
 7177  3420  3418 1
 7178  3425  3421 1
 7179  3425  3422 1
 7180  3426  3423 1
 7181  3426  3424 1
 7182  3431  3427 1
 7183  3431  3428 1
 7184  3432  3429 1
 7185  3432  3430 1
 7186  3437  3433 1
 7187  3437  3434 1
 7188  3438  3435 1
 7189  3438  3436 1
 7190  3443  3439 1
 7191  3443  3440 1
 7192  3444  3441 1
 7193  3444  3442 1
 7194  3449  3445 1
 7195  3449  3446 1
 7196  3450  3447 1
 7197  3450  3448 1
 7198  3455  3451 1
 7199  3455  3452 1
 7200  3456  3453 1
 7201  3456  3454 1
 7202  3461  3457 1
 7203  3461  3458 1
 7204  3462  3459 1
 7205  3462  3460 1
 7206  3467  3463 1
 7207  3467  3464 1
 7208  3468  3465 1
 7209  3468  3466 1
 7210  3473  3469 1
 7211  3473  3470 1
 7212  3474  3471 1
 7213  3474  3472 1
 7214  3479  3475 1
 7215  3479  3476 1
 7216  3480  3477 1
 7217  3480  3478 1
 7218  3485  3481 1
 7219  3485  3482 1
 7220  3486  3483 1
 7221  3486  3484 1
 7222  3491  3487 1
 7223  3491  3488 1
 7224  3492  3489 1
 7225  3492  3490 1
 7226  3497  3493 1
 7227  3497  3494 1
 7228  3498  3495 1
 7229  3498  3496 1
 7230  3503  3499 1
 7231  3503  3500 1
 7232  3504  3501 1
 7233  3504  3502 1
 7234  3509  3505 1
 7235  3509  3506 1
 7236  3510  3507 1
 7237  3510  3508 1
 7238  3515  3511 1
 7239  3515  3512 1
 7240  3516  3513 1
 7241  3516  3514 1
 7242  3521  3517 1
 7243  3521  3518 1
 7244  3522  3519 1
 7245  3522  3520 1
 7246  3527  3523 1
 7247  3527  3524 1
 7248  3528  3525 1
 7249  3528  3526 1
 7250  3533  3529 1
 7251  3533  3530 1
 7252  3534  3531 1
 7253  3534  3532 1
 7254  3539  3535 1
 7255  3539  3536 1
 7256  3540  3537 1
 7257  3540  3538 1
 7258  3545  3541 1
 7259  3545  3542 1
 7260  3546  3543 1
 7261  3546  3544 1
 7262  3551  3547 1
 7263  3551  3548 1
 7264  3552  3549 1
 7265  3552  3550 1
 7266  3557  3553 1
 7267  3557  3554 1
 7268  3558  3555 1
 7269  3558  3556 1
 7270  3563  3559 1
 7271  3563  3560 1
 7272  3564  3561 1
 7273  3564  3562 1
 7274  3569  3565 1
 7275  3569  3566 1
 7276  3570  3567 1
 7277  3570  3568 1
 7278  3575  3571 1
 7279  3575  3572 1
 7280  3576  3573 1
 7281  3576  3574 1
 7282  3581  3577 1
 7283  3581  3578 1
 7284  3582  3579 1
 7285  3582  3580 1
 7286  3587  3583 1
 7287  3587  3584 1
 7288  3588  3585 1
 7289  3588  3586 1
 7290  3593  3589 1
 7291  3593  3590 1
 7292  3594  3591 1
 7293  3594  3592 1
 7294  3599  3595 1
 7295  3599  3596 1
 7296  3600  3597 1
 7297  3600  3598 1
 7298  3605  3601 1
 7299  3605  3602 1
 7300  3606  3603 1
 7301  3606  3604 1
 7302  3611  3607 1
 7303  3611  3608 1
 7304  3612  3609 1
 7305  3612  3610 1
 7306  3617  3613 1
 7307  3617  3614 1
 7308  3618  3615 1
 7309  3618  3616 1
 7310  3623  3619 1
 7311  3623  3620 1
 7312  3624  3621 1
 7313  3624  3622 1
 7314  3629  3625 1
 7315  3629  3626 1
 7316  3630  3627 1
 7317  3630  3628 1
 7318  3635  3631 1
 7319  3635  3632 1
 7320  3636  3633 1
 7321  3636  3634 1
 7322  3641  3637 1
 7323  3641  3638 1
 7324  3642  3639 1
 7325  3642  3640 1
 7326  3647  3643 1
 7327  3647  3644 1
 7328  3648  3645 1
 7329  3648  3646 1
 7330  3653  3649 1
 7331  3653  3650 1
 7332  3654  3651 1
 7333  3654  3652 1
 7334  3659  3655 1
 7335  3659  3656 1
 7336  3660  3657 1
 7337  3660  3658 1
 7338  3665  3661 1
 7339  3665  3662 1
 7340  3666  3663 1
 7341  3666  3664 1
 7342  3671  3667 1
 7343  3671  3668 1
 7344  3672  3669 1
 7345  3672  3670 1
 7346  3677  3673 1
 7347  3677  3674 1
 7348  3678  3675 1
 7349  3678  3676 1
 7350  3683  3679 1
 7351  3683  3680 1
 7352  3684  3681 1
 7353  3684  3682 1
 7354  3689  3685 1
 7355  3689  3686 1
 7356  3690  3687 1
 7357  3690  3688 1
 7358  3695  3691 1
 7359  3695  3692 1
 7360  3696  3693 1
 7361  3696  3694 1
 7362  3701  3697 1
 7363  3701  3698 1
 7364  3702  3699 1
 7365  3702  3700 1
 7366  3707  3703 1
 7367  3707  3704 1
 7368  3708  3705 1
 7369  3708  3706 1
 7370  3713  3709 1
 7371  3713  3710 1
 7372  3714  3711 1
 7373  3714  3712 1
 7374  3719  3715 1
 7375  3719  3716 1
 7376  3720  3717 1
 7377  3720  3718 1
 7378  3725  3721 1
 7379  3725  3722 1
 7380  3726  3723 1
 7381  3726  3724 1
 7382  3731  3727 1
 7383  3731  3728 1
 7384  3732  3729 1
 7385  3732  3730 1
 7386  3737  3733 1
 7387  3737  3734 1
 7388  3738  3735 1
 7389  3738  3736 1
 7390  3743  3739 1
 7391  3743  3740 1
 7392  3744  3741 1
 7393  3744  3742 1
 7394  3749  3745 1
 7395  3749  3746 1
 7396  3750  3747 1
 7397  3750  3748 1
 7398  3755  3751 1
 7399  3755  3752 1
 7400  3756  3753 1
 7401  3756  3754 1
 7402  3761  3757 1
 7403  3761  3758 1
 7404  3762  3759 1
 7405  3762  3760 1
 7406  3767  3763 1
 7407  3767  3764 1
 7408  3768  3765 1
 7409  3768  3766 1
 7410  3773  3769 1
 7411  3773  3770 1
 7412  3774  3771 1
 7413  3774  3772 1
 7414  3779  3775 1
 7415  3779  3776 1
 7416  3780  3777 1
 7417  3780  3778 1
 7418  3785  3781 1
 7419  3785  3782 1
 7420  3786  3783 1
 7421  3786  3784 1
 7422  3791  3787 1
 7423  3791  3788 1
 7424  3792  3789 1
 7425  3792  3790 1
 7426  3797  3793 1
 7427  3797  3794 1
 7428  3798  3795 1
 7429  3798  3796 1
 7430  3803  3799 1
 7431  3803  3800 1
 7432  3804  3801 1
 7433  3804  3802 1
 7434  3809  3805 1
 7435  3809  3806 1
 7436  3810  3807 1
 7437  3810  3808 1
 7438  3815  3811 1
 7439  3815  3812 1
 7440  3816  3813 1
 7441  3816  3814 1
 7442  3821  3817 1
 7443  3821  3818 1
 7444  3822  3819 1
 7445  3822  3820 1
 7446  3827  3823 1
 7447  3827  3824 1
 7448  3828  3825 1
 7449  3828  3826 1
 7450  3833  3829 1
 7451  3833  3830 1
 7452  3834  3831 1
 7453  3834  3832 1
 7454  3839  3835 1
 7455  3839  3836 1
 7456  3840  3837 1
 7457  3840  3838 1
 7458  3845  3841 1
 7459  3845  3842 1
 7460  3846  3843 1
 7461  3846  3844 1
 7462  3851  3847 1
 7463  3851  3848 1
 7464  3852  3849 1
 7465  3852  3850 1
 7466  3857  3853 1
 7467  3857  3854 1
 7468  3858  3855 1
 7469  3858  3856 1
 7470  3863  3859 1
 7471  3863  3860 1
 7472  3864  3861 1
 7473  3864  3862 1
 7474  3869  3865 1
 7475  3869  3866 1
 7476  3870  3867 1
 7477  3870  3868 1
 7478  3875  3871 1
 7479  3875  3872 1
 7480  3876  3873 1
 7481  3876  3874 1
 7482  3881  3877 1
 7483  3881  3878 1
 7484  3882  3879 1
 7485  3882  3880 1
 7486  3887  3883 1
 7487  3887  3884 1
 7488  3888  3885 1
 7489  3888  3886 1
 7490  3893  3889 1
 7491  3893  3890 1
 7492  3894  3891 1
 7493  3894  3892 1
 7494  3899  3895 1
 7495  3899  3896 1
 7496  3900  3897 1
 7497  3900  3898 1
 7498  3905  3901 1
 7499  3905  3902 1
 7500  3906  3903 1
 7501  3906  3904 1
 7502  3911  3907 1
 7503  3911  3908 1
 7504  3912  3909 1
 7505  3912  3910 1
 7506  3917  3913 1
 7507  3917  3914 1
 7508  3918  3915 1
 7509  3918  3916 1
 7510  3923  3919 1
 7511  3923  3920 1
 7512  3924  3921 1
 7513  3924  3922 1
 7514  3929  3925 1
 7515  3929  3926 1
 7516  3930  3927 1
 7517  3930  3928 1
 7518  3935  3931 1
 7519  3935  3932 1
 7520  3936  3933 1
 7521  3936  3934 1
 7522  3941  3937 1
 7523  3941  3938 1
 7524  3942  3939 1
 7525  3942  3940 1
 7526  3947  3943 1
 7527  3947  3944 1
 7528  3948  3945 1
 7529  3948  3946 1
 7530  3953  3949 1
 7531  3953  3950 1
 7532  3954  3951 1
 7533  3954  3952 1
 7534  3959  3955 1
 7535  3959  3956 1
 7536  3960  3957 1
 7537  3960  3958 1
 7538  3965  3961 1
 7539  3965  3962 1
 7540  3966  3963 1
 7541  3966  3964 1
 7542  3971  3967 1
 7543  3971  3968 1
 7544  3972  3969 1
 7545  3972  3970 1
 7546  3977  3973 1
 7547  3977  3974 1
 7548  3978  3975 1
 7549  3978  3976 1
 7550  3983  3979 1
 7551  3983  3980 1
 7552  3984  3981 1
 7553  3984  3982 1
 7554  3989  3985 1
 7555  3989  3986 1
 7556  3990  3987 1
 7557  3990  3988 1
 7558  3995  3991 1
 7559  3995  3992 1
 7560  3996  3993 1
 7561  3996  3994 1
 7562  4001  3997 1
 7563  4001  3998 1
 7564  4002  3999 1
 7565  4002  4000 1
 7566  4007  4003 1
 7567  4007  4004 1
 7568  4008  4005 1
 7569  4008  4006 1
 7570  4013  4009 1
 7571  4013  4010 1
 7572  4014  4011 1
 7573  4014  4012 1
 7574  4019  4015 1
 7575  4019  4016 1
 7576  4020  4017 1
 7577  4020  4018 1
 7578  4025  4021 1
 7579  4025  4022 1
 7580  4026  4023 1
 7581  4026  4024 1
 7582  4031  4027 1
 7583  4031  4028 1
 7584  4032  4029 1
 7585  4032  4030 1
 7586  4037  4033 1
 7587  4037  4034 1
 7588  4038  4035 1
 7589  4038  4036 1
 7590  4043  4039 1
 7591  4043  4040 1
 7592  4044  4041 1
 7593  4044  4042 1
 7594  4049  4045 1
 7595  4049  4046 1
 7596  4050  4047 1
 7597  4050  4048 1
 7598  4055  4051 1
 7599  4055  4052 1
 7600  4056  4053 1
 7601  4056  4054 1
 7602  4061  4057 1
 7603  4061  4058 1
 7604  4062  4059 1
 7605  4062  4060 1
 7606  4067  4063 1
 7607  4067  4064 1
 7608  4068  4065 1
 7609  4068  4066 1
 7610  4073  4069 1
 7611  4073  4070 1
 7612  4074  4071 1
 7613  4074  4072 1
 7614  4079  4075 1
 7615  4079  4076 1
 7616  4080  4077 1
 7617  4080  4078 1
 7618  4085  4081 1
 7619  4085  4082 1
 7620  4086  4083 1
 7621  4086  4084 1
 7622  4091  4087 1
 7623  4091  4088 1
 7624  4092  4089 1
 7625  4092  4090 1
 7626  4097  4093 1
 7627  4097  4094 1
 7628  4098  4095 1
 7629  4098  4096 1
 7630  4103  4099 1
 7631  4103  4100 1
 7632  4104  4101 1
 7633  4104  4102 1
 7634  4109  4105 1
 7635  4109  4106 1
 7636  4110  4107 1
 7637  4110  4108 1
 7638  4115  4111 1
 7639  4115  4112 1
 7640  4116  4113 1
 7641  4116  4114 1
 7642  4121  4117 1
 7643  4121  4118 1
 7644  4122  4119 1
 7645  4122  4120 1
 7646  4127  4123 1
 7647  4127  4124 1
 7648  4128  4125 1
 7649  4128  4126 1
 7650  4133  4129 1
 7651  4133  4130 1
 7652  4134  4131 1
 7653  4134  4132 1
 7654  4139  4135 1
 7655  4139  4136 1
 7656  4140  4137 1
 7657  4140  4138 1
 7658  4145  4141 1
 7659  4145  4142 1
 7660  4146  4143 1
 7661  4146  4144 1
 7662  4151  4147 1
 7663  4151  4148 1
 7664  4152  4149 1
 7665  4152  4150 1
 7666  4157  4153 1
 7667  4157  4154 1
 7668  4158  4155 1
 7669  4158  4156 1
 7670  4163  4159 1
 7671  4163  4160 1
 7672  4164  4161 1
 7673  4164  4162 1
 7674  4169  4165 1
 7675  4169  4166 1
 7676  4170  4167 1
 7677  4170  4168 1
 7678  4175  4171 1
 7679  4175  4172 1
 7680  4176  4173 1
 7681  4176  4174 1
 7682  4181  4177 1
 7683  4181  4178 1
 7684  4182  4179 1
 7685  4182  4180 1
 7686  4187  4183 1
 7687  4187  4184 1
 7688  4188  4185 1
 7689  4188  4186 1
 7690  4193  4189 1
 7691  4193  4190 1
 7692  4194  4191 1
 7693  4194  4192 1
 7694  4199  4195 1
 7695  4199  4196 1
 7696  4200  4197 1
 7697  4200  4198 1
 7698  4205  4201 1
 7699  4205  4202 1
 7700  4206  4203 1
 7701  4206  4204 1
 7702  4211  4207 1
 7703  4211  4208 1
 7704  4212  4209 1
 7705  4212  4210 1
 7706  4217  4213 1
 7707  4217  4214 1
 7708  4218  4215 1
 7709  4218  4216 1
 7710  4223  4219 1
 7711  4223  4220 1
 7712  4224  4221 1
 7713  4224  4222 1
 7714  4229  4225 1
 7715  4229  4226 1
 7716  4230  4227 1
 7717  4230  4228 1
 7718  4235  4231 1
 7719  4235  4232 1
 7720  4236  4233 1
 7721  4236  4234 1
 7722  4241  4237 1
 7723  4241  4238 1
 7724  4242  4239 1
 7725  4242  4240 1
 7726  4247  4243 1
 7727  4247  4244 1
 7728  4248  4245 1
 7729  4248  4246 1
 7730  4253  4249 1
 7731  4253  4250 1
 7732  4254  4251 1
 7733  4254  4252 1
 7734  4259  4255 1
 7735  4259  4256 1
 7736  4260  4257 1
 7737  4260  4258 1
 7738  4265  4261 1
 7739  4265  4262 1
 7740  4266  4263 1
 7741  4266  4264 1
 7742  4271  4267 1
 7743  4271  4268 1
 7744  4272  4269 1
 7745  4272  4270 1
 7746  4277  4273 1
 7747  4277  4274 1
 7748  4278  4275 1
 7749  4278  4276 1
 7750  4283  4279 1
 7751  4283  4280 1
 7752  4284  4281 1
 7753  4284  4282 1
 7754  4289  4285 1
 7755  4289  4286 1
 7756  4290  4287 1
 7757  4290  4288 1
 7758  4295  4291 1
 7759  4295  4292 1
 7760  4296  4293 1
 7761  4296  4294 1
 7762  4301  4297 1
 7763  4301  4298 1
 7764  4302  4299 1
 7765  4302  4300 1
 7766  4307  4303 1
 7767  4307  4304 1
 7768  4308  4305 1
 7769  4308  4306 1
 7770  4313  4309 1
 7771  4313  4310 1
 7772  4314  4311 1
 7773  4314  4312 1
 7774  4319  4315 1
 7775  4319  4316 1
 7776  4320  4317 1
 7777  4320  4318 1
 7778  4325  4321 1
 7779  4325  4322 1
 7780  4326  4323 1
 7781  4326  4324 1
 7782  4331  4327 1
 7783  4331  4328 1
 7784  4332  4329 1
 7785  4332  4330 1
 7786  4337  4333 1
 7787  4337  4334 1
 7788  4338  4335 1
 7789  4338  4336 1
 7790  4343  4339 1
 7791  4343  4340 1
 7792  4344  4341 1
 7793  4344  4342 1
 7794  4349  4345 1
 7795  4349  4346 1
 7796  4350  4347 1
 7797  4350  4348 1
 7798  4355  4351 1
 7799  4355  4352 1
 7800  4356  4353 1
 7801  4356  4354 1
 7802  4361  4357 1
 7803  4361  4358 1
 7804  4362  4359 1
 7805  4362  4360 1
 7806  4367  4363 1
 7807  4367  4364 1
 7808  4368  4365 1
 7809  4368  4366 1
 7810  4373  4369 1
 7811  4373  4370 1
 7812  4374  4371 1
 7813  4374  4372 1
 7814  4379  4375 1
 7815  4379  4376 1
 7816  4380  4377 1
 7817  4380  4378 1
 7818  4385  4381 1
 7819  4385  4382 1
 7820  4386  4383 1
 7821  4386  4384 1
 7822  4391  4387 1
 7823  4391  4388 1
 7824  4392  4389 1
 7825  4392  4390 1
 7826  4397  4393 1
 7827  4397  4394 1
 7828  4398  4395 1
 7829  4398  4396 1
 7830  4403  4399 1
 7831  4403  4400 1
 7832  4404  4401 1
 7833  4404  4402 1
 7834  4409  4405 1
 7835  4409  4406 1
 7836  4410  4407 1
 7837  4410  4408 1
 7838  4415  4411 1
 7839  4415  4412 1
 7840  4416  4413 1
 7841  4416  4414 1
 7842  4421  4417 1
 7843  4421  4418 1
 7844  4422  4419 1
 7845  4422  4420 1
 7846  4427  4423 1
 7847  4427  4424 1
 7848  4428  4425 1
 7849  4428  4426 1
 7850  4433  4429 1
 7851  4433  4430 1
 7852  4434  4431 1
 7853  4434  4432 1
 7854  4439  4435 1
 7855  4439  4436 1
 7856  4440  4437 1
 7857  4440  4438 1
 7858  4445  4441 1
 7859  4445  4442 1
 7860  4446  4443 1
 7861  4446  4444 1
 7862  4451  4447 1
 7863  4451  4448 1
 7864  4452  4449 1
 7865  4452  4450 1
 7866  4457  4453 1
 7867  4457  4454 1
 7868  4458  4455 1
 7869  4458  4456 1
 7870  4463  4459 1
 7871  4463  4460 1
 7872  4464  4461 1
 7873  4464  4462 1
 7874  4469  4465 1
 7875  4469  4466 1
 7876  4470  4467 1
 7877  4470  4468 1
 7878  4475  4471 1
 7879  4475  4472 1
 7880  4476  4473 1
 7881  4476  4474 1
 7882  4481  4477 1
 7883  4481  4478 1
 7884  4482  4479 1
 7885  4482  4480 1
 7886  4487  4483 1
 7887  4487  4484 1
 7888  4488  4485 1
 7889  4488  4486 1
 7890  4493  4489 1
 7891  4493  4490 1
 7892  4494  4491 1
 7893  4494  4492 1
 7894  4499  4495 1
 7895  4499  4496 1
 7896  4500  4497 1
 7897  4500  4498 1
 7898  4505  4501 1
 7899  4505  4502 1
 7900  4506  4503 1
 7901  4506  4504 1
 7902  4511  4507 1
 7903  4511  4508 1
 7904  4512  4509 1
 7905  4512  4510 1
 7906  4517  4513 1
 7907  4517  4514 1
 7908  4518  4515 1
 7909  4518  4516 1
 7910  4523  4519 1
 7911  4523  4520 1
 7912  4524  4521 1
 7913  4524  4522 1
 7914  4529  4525 1
 7915  4529  4526 1
 7916  4530  4527 1
 7917  4530  4528 1
 7918  4535  4531 1
 7919  4535  4532 1
 7920  4536  4533 1
 7921  4536  4534 1
 7922  4541  4537 1
 7923  4541  4538 1
 7924  4542  4539 1
 7925  4542  4540 1
 7926  4547  4543 1
 7927  4547  4544 1
 7928  4548  4545 1
 7929  4548  4546 1
 7930  4553  4549 1
 7931  4553  4550 1
 7932  4554  4551 1
 7933  4554  4552 1
 7934  4559  4555 1
 7935  4559  4556 1
 7936  4560  4557 1
 7937  4560  4558 1
 7938  4565  4561 1
 7939  4565  4562 1
 7940  4566  4563 1
 7941  4566  4564 1
 7942  4571  4567 1
 7943  4571  4568 1
 7944  4572  4569 1
 7945  4572  4570 1
 7946  4577  4573 1
 7947  4577  4574 1
 7948  4578  4575 1
 7949  4578  4576 1
 7950  4583  4579 1
 7951  4583  4580 1
 7952  4584  4581 1
 7953  4584  4582 1
 7954  4589  4585 1
 7955  4589  4586 1
 7956  4590  4587 1
 7957  4590  4588 1
 7958  4595  4591 1
 7959  4595  4592 1
 7960  4596  4593 1
 7961  4596  4594 1
 7962  4601  4597 1
 7963  4601  4598 1
 7964  4602  4599 1
 7965  4602  4600 1
 7966  4607  4603 1
 7967  4607  4604 1
 7968  4608  4605 1
 7969  4608  4606 1
 7970  4613  4609 1
 7971  4613  4610 1
 7972  4614  4611 1
 7973  4614  4612 1
 7974  4619  4615 1
 7975  4619  4616 1
 7976  4620  4617 1
 7977  4620  4618 1
 7978  4625  4621 1
 7979  4625  4622 1
 7980  4626  4623 1
 7981  4626  4624 1
 7982  4631  4627 1
 7983  4631  4628 1
 7984  4632  4629 1
 7985  4632  4630 1
 7986  4637  4633 1
 7987  4637  4634 1
 7988  4638  4635 1
 7989  4638  4636 1
 7990  4643  4639 1
 7991  4643  4640 1
 7992  4644  4641 1
 7993  4644  4642 1
 7994  4649  4645 1
 7995  4649  4646 1
 7996  4650  4647 1
 7997  4650  4648 1
 7998  4655  4651 1
 7999  4655  4652 1
 8000  4656  4653 1
 8001  4656  4654 1
 8002  4661  4657 1
 8003  4661  4658 1
 8004  4662  4659 1
 8005  4662  4660 1
 8006  4667  4663 1
 8007  4667  4664 1
 8008  4668  4665 1
 8009  4668  4666 1
 8010  4673  4669 1
 8011  4673  4670 1
 8012  4674  4671 1
 8013  4674  4672 1
 8014  4679  4675 1
 8015  4679  4676 1
 8016  4680  4677 1
 8017  4680  4678 1
 8018  4685  4681 1
 8019  4685  4682 1
 8020  4686  4683 1
 8021  4686  4684 1
 8022  4691  4687 1
 8023  4691  4688 1
 8024  4692  4689 1
 8025  4692  4690 1
 8026  4697  4693 1
 8027  4697  4694 1
 8028  4698  4695 1
 8029  4698  4696 1
 8030  4703  4699 1
 8031  4703  4700 1
 8032  4704  4701 1
 8033  4704  4702 1
 8034  4709  4705 1
 8035  4709  4706 1
 8036  4710  4707 1
 8037  4710  4708 1
 8038  4715  4711 1
 8039  4715  4712 1
 8040  4716  4713 1
 8041  4716  4714 1
 8042  4721  4717 1
 8043  4721  4718 1
 8044  4722  4719 1
 8045  4722  4720 1
 8046  4727  4723 1
 8047  4727  4724 1
 8048  4728  4725 1
 8049  4728  4726 1
 8050  4733  4729 1
 8051  4733  4730 1
 8052  4734  4731 1
 8053  4734  4732 1
 8054  4739  4735 1
 8055  4739  4736 1
 8056  4740  4737 1
 8057  4740  4738 1
 8058  4745  4741 1
 8059  4745  4742 1
 8060  4746  4743 1
 8061  4746  4744 1
 8062  4751  4747 1
 8063  4751  4748 1
 8064  4752  4749 1
 8065  4752  4750 1
 8066  4757  4753 1
 8067  4757  4754 1
 8068  4758  4755 1
 8069  4758  4756 1
 8070  4763  4759 1
 8071  4763  4760 1
 8072  4764  4761 1
 8073  4764  4762 1
 8074  4769  4765 1
 8075  4769  4766 1
 8076  4770  4767 1
 8077  4770  4768 1
 8078  4775  4771 1
 8079  4775  4772 1
 8080  4776  4773 1
 8081  4776  4774 1
 8082  4781  4777 1
 8083  4781  4778 1
 8084  4782  4779 1
 8085  4782  4780 1
 8086  4787  4783 1
 8087  4787  4784 1
 8088  4788  4785 1
 8089  4788  4786 1
 8090  4793  4789 1
 8091  4793  4790 1
 8092  4794  4791 1
 8093  4794  4792 1
 8094  4799  4795 1
 8095  4799  4796 1
 8096  4800  4797 1
 8097  4800  4798 1
 8098  4805  4801 1
 8099  4805  4802 1
 8100  4806  4803 1
 8101  4806  4804 1
 8102  4811  4807 1
 8103  4811  4808 1
 8104  4812  4809 1
 8105  4812  4810 1
 8106  4817  4813 1
 8107  4817  4814 1
 8108  4818  4815 1
 8109  4818  4816 1
 8110  4823  4819 1
 8111  4823  4820 1
 8112  4824  4821 1
 8113  4824  4822 1
 8114  4829  4825 1
 8115  4829  4826 1
 8116  4830  4827 1
 8117  4830  4828 1
 8118  4835  4831 1
 8119  4835  4832 1
 8120  4836  4833 1
 8121  4836  4834 1
 8122  4841  4837 1
 8123  4841  4838 1
 8124  4842  4839 1
 8125  4842  4840 1
 8126  4847  4843 1
 8127  4847  4844 1
 8128  4848  4845 1
 8129  4848  4846 1
 8130  4853  4849 1
 8131  4853  4850 1
 8132  4854  4851 1
 8133  4854  4852 1
 8134  4859  4855 1
 8135  4859  4856 1
 8136  4860  4857 1
 8137  4860  4858 1
 8138  4865  4861 1
 8139  4865  4862 1
 8140  4866  4863 1
 8141  4866  4864 1
 8142  4871  4867 1
 8143  4871  4868 1
 8144  4872  4869 1
 8145  4872  4870 1
 8146  4877  4873 1
 8147  4877  4874 1
 8148  4878  4875 1
 8149  4878  4876 1
 8150  4883  4879 1
 8151  4883  4880 1
 8152  4884  4881 1
 8153  4884  4882 1
 8154  4889  4885 1
 8155  4889  4886 1
 8156  4890  4887 1
 8157  4890  4888 1
 8158  4895  4891 1
 8159  4895  4892 1
 8160  4896  4893 1
 8161  4896  4894 1
 8162  4901  4897 1
 8163  4901  4898 1
 8164  4902  4899 1
 8165  4902  4900 1
 8166  4907  4903 1
 8167  4907  4904 1
 8168  4908  4905 1
 8169  4908  4906 1
 8170  4913  4909 1
 8171  4913  4910 1
 8172  4914  4911 1
 8173  4914  4912 1
 8174  4919  4915 1
 8175  4919  4916 1
 8176  4920  4917 1
 8177  4920  4918 1
 8178  4925  4921 1
 8179  4925  4922 1
 8180  4926  4923 1
 8181  4926  4924 1
 8182  4931  4927 1
 8183  4931  4928 1
 8184  4932  4929 1
 8185  4932  4930 1
 8186  4937  4933 1
 8187  4937  4934 1
 8188  4938  4935 1
 8189  4938  4936 1
 8190  4943  4939 1
 8191  4943  4940 1
 8192  4944  4941 1
 8193  4944  4942 1
 8194  4949  4945 1
 8195  4949  4946 1
 8196  4950  4947 1
 8197  4950  4948 1
 8198  4955  4951 1
 8199  4955  4952 1
 8200  4956  4953 1
 8201  4956  4954 1
 8202  4961  4957 1
 8203  4961  4958 1
 8204  4962  4959 1
 8205  4962  4960 1
 8206  4967  4963 1
 8207  4967  4964 1
 8208  4968  4965 1
 8209  4968  4966 1
 8210  4973  4969 1
 8211  4973  4970 1
 8212  4974  4971 1
 8213  4974  4972 1
 8214  4979  4975 1
 8215  4979  4976 1
 8216  4980  4977 1
 8217  4980  4978 1
 8218  4985  4981 1
 8219  4985  4982 1
 8220  4986  4983 1
 8221  4986  4984 1
 8222  4991  4987 1
 8223  4991  4988 1
 8224  4992  4989 1
 8225  4992  4990 1
 8226  4997  4993 1
 8227  4997  4994 1
 8228  4998  4995 1
 8229  4998  4996 1
 8230  5003  4999 1
 8231  5003  5000 1
 8232  5004  5001 1
 8233  5004  5002 1
 8234  5009  5005 1
 8235  5009  5006 1
 8236  5010  5007 1
 8237  5010  5008 1
 8238  5015  5011 1
 8239  5015  5012 1
 8240  5016  5013 1
 8241  5016  5014 1
 8242  5021  5017 1
 8243  5021  5018 1
 8244  5022  5019 1
 8245  5022  5020 1
 8246  5027  5023 1
 8247  5027  5024 1
 8248  5028  5025 1
 8249  5028  5026 1
 8250  5033  5029 1
 8251  5033  5030 1
 8252  5034  5031 1
 8253  5034  5032 1
 8254  5039  5035 1
 8255  5039  5036 1
 8256  5040  5037 1
 8257  5040  5038 1
 8258  5045  5041 1
 8259  5045  5042 1
 8260  5046  5043 1
 8261  5046  5044 1
 8262  5051  5047 1
 8263  5051  5048 1
 8264  5052  5049 1
 8265  5052  5050 1
 8266  5057  5053 1
 8267  5057  5054 1
 8268  5058  5055 1
 8269  5058  5056 1
 8270  5063  5059 1
 8271  5063  5060 1
 8272  5064  5061 1
 8273  5064  5062 1
 8274  5069  5065 1
 8275  5069  5066 1
 8276  5070  5067 1
 8277  5070  5068 1
 8278  5075  5071 1
 8279  5075  5072 1
 8280  5076  5073 1
 8281  5076  5074 1
 8282  5081  5077 1
 8283  5081  5078 1
 8284  5082  5079 1
 8285  5082  5080 1
 8286  5087  5083 1
 8287  5087  5084 1
 8288  5088  5085 1
 8289  5088  5086 1
 8290  5093  5089 1
 8291  5093  5090 1
 8292  5094  5091 1
 8293  5094  5092 1
 8294  5099  5095 1
 8295  5099  5096 1
 8296  5100  5097 1
 8297  5100  5098 1
 8298  5105  5101 1
 8299  5105  5102 1
 8300  5106  5103 1
 8301  5106  5104 1
 8302  5111  5107 1
 8303  5111  5108 1
 8304  5112  5109 1
 8305  5112  5110 1
 8306  5117  5113 1
 8307  5117  5114 1
 8308  5118  5115 1
 8309  5118  5116 1
 8310  5123  5119 1
 8311  5123  5120 1
 8312  5124  5121 1
 8313  5124  5122 1
 8314  5129  5125 1
 8315  5129  5126 1
 8316  5130  5127 1
 8317  5130  5128 1
 8318  5135  5131 1
 8319  5135  5132 1
 8320  5136  5133 1
 8321  5136  5134 1
 8322  5141  5137 1
 8323  5141  5138 1
 8324  5142  5139 1
 8325  5142  5140 1
 8326  5147  5143 1
 8327  5147  5144 1
 8328  5148  5145 1
 8329  5148  5146 1
 8330  5153  5149 1
 8331  5153  5150 1
 8332  5154  5151 1
 8333  5154  5152 1
 8334  5159  5155 1
 8335  5159  5156 1
 8336  5160  5157 1
 8337  5160  5158 1
 8338  5165  5161 1
 8339  5165  5162 1
 8340  5166  5163 1
 8341  5166  5164 1
 8342  5171  5167 1
 8343  5171  5168 1
 8344  5172  5169 1
 8345  5172  5170 1
 8346  5177  5173 1
 8347  5177  5174 1
 8348  5178  5175 1
 8349  5178  5176 1
 8350  5183  5179 1
 8351  5183  5180 1
 8352  5184  5181 1
 8353  5184  5182 1
 8354  5189  5185 1
 8355  5189  5186 1
 8356  5190  5187 1
 8357  5190  5188 1
 8358  5195  5191 1
 8359  5195  5192 1
 8360  5196  5193 1
 8361  5196  5194 1
 8362  5201  5197 1
 8363  5201  5198 1
 8364  5202  5199 1
 8365  5202  5200 1
 8366  5207  5203 1
 8367  5207  5204 1
 8368  5208  5205 1
 8369  5208  5206 1
 8370  5213  5209 1
 8371  5213  5210 1
 8372  5214  5211 1
 8373  5214  5212 1
 8374  5219  5215 1
 8375  5219  5216 1
 8376  5220  5217 1
 8377  5220  5218 1
 8378  5225  5221 1
 8379  5225  5222 1
 8380  5226  5223 1
 8381  5226  5224 1
 8382  5231  5227 1
 8383  5231  5228 1
 8384  5232  5229 1
 8385  5232  5230 1
 8386  5237  5233 1
 8387  5237  5234 1
 8388  5238  5235 1
 8389  5238  5236 1
 8390  5243  5239 1
 8391  5243  5240 1
 8392  5244  5241 1
 8393  5244  5242 1
 8394  5249  5245 1
 8395  5249  5246 1
 8396  5250  5247 1
 8397  5250  5248 1
 8398  5255  5251 1
 8399  5255  5252 1
 8400  5256  5253 1
 8401  5256  5254 1
 8402  5261  5257 1
 8403  5261  5258 1
 8404  5262  5259 1
 8405  5262  5260 1
 8406  5267  5263 1
 8407  5267  5264 1
 8408  5268  5265 1
 8409  5268  5266 1
 8410  5273  5269 1
 8411  5273  5270 1
 8412  5274  5271 1
 8413  5274  5272 1
 8414  5279  5275 1
 8415  5279  5276 1
 8416  5280  5277 1
 8417  5280  5278 1
 8418  5285  5281 1
 8419  5285  5282 1
 8420  5286  5283 1
 8421  5286  5284 1
 8422  5291  5287 1
 8423  5291  5288 1
 8424  5292  5289 1
 8425  5292  5290 1
 8426  5297  5293 1
 8427  5297  5294 1
 8428  5298  5295 1
 8429  5298  5296 1
 8430  5303  5299 1
 8431  5303  5300 1
 8432  5304  5301 1
 8433  5304  5302 1
 8434  5309  5305 1
 8435  5309  5306 1
 8436  5310  5307 1
 8437  5310  5308 1
 8438  5315  5311 1
 8439  5315  5312 1
 8440  5316  5313 1
 8441  5316  5314 1
 8442  5321  5317 1
 8443  5321  5318 1
 8444  5322  5319 1
 8445  5322  5320 1
 8446  5327  5323 1
 8447  5327  5324 1
 8448  5328  5325 1
 8449  5328  5326 1
 8450  5333  5329 1
 8451  5333  5330 1
 8452  5334  5331 1
 8453  5334  5332 1
 8454  5339  5335 1
 8455  5339  5336 1
 8456  5340  5337 1
 8457  5340  5338 1
 8458  5345  5341 1
 8459  5345  5342 1
 8460  5346  5343 1
 8461  5346  5344 1
 8462  5351  5347 1
 8463  5351  5348 1
 8464  5352  5349 1
 8465  5352  5350 1
 8466  5357  5353 1
 8467  5357  5354 1
 8468  5358  5355 1
 8469  5358  5356 1
 8470  5363  5359 1
 8471  5363  5360 1
 8472  5364  5361 1
 8473  5364  5362 1
 8474  5369  5365 1
 8475  5369  5366 1
 8476  5370  5367 1
 8477  5370  5368 1
 8478  5375  5371 1
 8479  5375  5372 1
 8480  5376  5373 1
 8481  5376  5374 1
 8482  5381  5377 1
 8483  5381  5378 1
 8484  5382  5379 1
 8485  5382  5380 1
 8486  5387  5383 1
 8487  5387  5384 1
 8488  5388  5385 1
 8489  5388  5386 1
 8490  5393  5389 1
 8491  5393  5390 1
 8492  5394  5391 1
 8493  5394  5392 1
 8494  5399  5395 1
 8495  5399  5396 1
 8496  5400  5397 1
 8497  5400  5398 1
 8498  5405  5401 1
 8499  5405  5402 1
 8500  5406  5403 1
 8501  5406  5404 1
 8502  5411  5407 1
 8503  5411  5408 1
 8504  5412  5409 1
 8505  5412  5410 1
 8506  5417  5413 1
 8507  5417  5414 1
 8508  5418  5415 1
 8509  5418  5416 1
 8510  5423  5419 1
 8511  5423  5420 1
 8512  5424  5421 1
 8513  5424  5422 1
 8514  5429  5425 1
 8515  5429  5426 1
 8516  5430  5427 1
 8517  5430  5428 1
 8518  5435  5431 1
 8519  5435  5432 1
 8520  5436  5433 1
 8521  5436  5434 1
 8522  5441  5437 1
 8523  5441  5438 1
 8524  5442  5439 1
 8525  5442  5440 1
 8526  5447  5443 1
 8527  5447  5444 1
 8528  5448  5445 1
 8529  5448  5446 1
 8530  5453  5449 1
 8531  5453  5450 1
 8532  5454  5451 1
 8533  5454  5452 1
 8534  5459  5455 1
 8535  5459  5456 1
 8536  5460  5457 1
 8537  5460  5458 1
 8538  5465  5461 1
 8539  5465  5462 1
 8540  5466  5463 1
 8541  5466  5464 1
 8542  5471  5467 1
 8543  5471  5468 1
 8544  5472  5469 1
 8545  5472  5470 1
 8546  5477  5473 1
 8547  5477  5474 1
 8548  5478  5475 1
 8549  5478  5476 1
 8550  5483  5479 1
 8551  5483  5480 1
 8552  5484  5481 1
 8553  5484  5482 1
 8554  5489  5485 1
 8555  5489  5486 1
 8556  5490  5487 1
 8557  5490  5488 1
 8558  5495  5491 1
 8559  5495  5492 1
 8560  5496  5493 1
 8561  5496  5494 1
 8562  5501  5497 1
 8563  5501  5498 1
 8564  5502  5499 1
 8565  5502  5500 1
 8566  5507  5503 1
 8567  5507  5504 1
 8568  5508  5505 1
 8569  5508  5506 1
 8570  5513  5509 1
 8571  5513  5510 1
 8572  5514  5511 1
 8573  5514  5512 1
 8574  5519  5515 1
 8575  5519  5516 1
 8576  5520  5517 1
 8577  5520  5518 1
 8578  5525  5521 1
 8579  5525  5522 1
 8580  5526  5523 1
 8581  5526  5524 1
 8582  5531  5527 1
 8583  5531  5528 1
 8584  5532  5529 1
 8585  5532  5530 1
 8586  5537  5533 1
 8587  5537  5534 1
 8588  5538  5535 1
 8589  5538  5536 1
 8590  5543  5539 1
 8591  5543  5540 1
 8592  5544  5541 1
 8593  5544  5542 1
 8594  5549  5545 1
 8595  5549  5546 1
 8596  5550  5547 1
 8597  5550  5548 1
 8598  5555  5551 1
 8599  5555  5552 1
 8600  5556  5553 1
 8601  5556  5554 1
 8602  5561  5557 1
 8603  5561  5558 1
 8604  5562  5559 1
 8605  5562  5560 1
 8606  5567  5563 1
 8607  5567  5564 1
 8608  5568  5565 1
 8609  5568  5566 1
 8610  5573  5569 1
 8611  5573  5570 1
 8612  5574  5571 1
 8613  5574  5572 1
 8614  5579  5575 1
 8615  5579  5576 1
 8616  5580  5577 1
 8617  5580  5578 1
 8618  5585  5581 1
 8619  5585  5582 1
 8620  5586  5583 1
 8621  5586  5584 1
 8622  5591  5587 1
 8623  5591  5588 1
 8624  5592  5589 1
 8625  5592  5590 1
 8626  5597  5593 1
 8627  5597  5594 1
 8628  5598  5595 1
 8629  5598  5596 1
 8630  5603  5599 1
 8631  5603  5600 1
 8632  5604  5601 1
 8633  5604  5602 1
 8634  5609  5605 1
 8635  5609  5606 1
 8636  5610  5607 1
 8637  5610  5608 1
 8638  5615  5611 1
 8639  5615  5612 1
 8640  5616  5613 1
 8641  5616  5614 1
 8642  5621  5617 1
 8643  5621  5618 1
 8644  5622  5619 1
 8645  5622  5620 1
 8646  5627  5623 1
 8647  5627  5624 1
 8648  5628  5625 1
 8649  5628  5626 1
 8650  5633  5629 1
 8651  5633  5630 1
 8652  5634  5631 1
 8653  5634  5632 1
 8654  5639  5635 1
 8655  5639  5636 1
 8656  5640  5637 1
 8657  5640  5638 1
 8658  5645  5641 1
 8659  5645  5642 1
 8660  5646  5643 1
 8661  5646  5644 1
 8662  5651  5647 1
 8663  5651  5648 1
 8664  5652  5649 1
 8665  5652  5650 1
 8666  5657  5653 1
 8667  5657  5654 1
 8668  5658  5655 1
 8669  5658  5656 1
 8670  5663  5659 1
 8671  5663  5660 1
 8672  5664  5661 1
 8673  5664  5662 1
 8674  5669  5665 1
 8675  5669  5666 1
 8676  5670  5667 1
 8677  5670  5668 1
 8678  5675  5671 1
 8679  5675  5672 1
 8680  5676  5673 1
 8681  5676  5674 1
 8682  5681  5677 1
 8683  5681  5678 1
 8684  5682  5679 1
 8685  5682  5680 1
 8686  5687  5683 1
 8687  5687  5684 1
 8688  5688  5685 1
 8689  5688  5686 1
 8690  5693  5689 1
 8691  5693  5690 1
 8692  5694  5691 1
 8693  5694  5692 1
 8694  5699  5695 1
 8695  5699  5696 1
 8696  5700  5697 1
 8697  5700  5698 1
 8698  5705  5701 1
 8699  5705  5702 1
 8700  5706  5703 1
 8701  5706  5704 1
 8702  5711  5707 1
 8703  5711  5708 1
 8704  5712  5709 1
 8705  5712  5710 1
 8706  5717  5713 1
 8707  5717  5714 1
 8708  5718  5715 1
 8709  5718  5716 1
 8710  5723  5719 1
 8711  5723  5720 1
 8712  5724  5721 1
 8713  5724  5722 1
 8714  5729  5725 1
 8715  5729  5726 1
 8716  5730  5727 1
 8717  5730  5728 1
 8718  5735  5731 1
 8719  5735  5732 1
 8720  5736  5733 1
 8721  5736  5734 1
 8722  5741  5737 1
 8723  5741  5738 1
 8724  5742  5739 1
 8725  5742  5740 1
 8726  5747  5743 1
 8727  5747  5744 1
 8728  5748  5745 1
 8729  5748  5746 1
 8730  5753  5749 1
 8731  5753  5750 1
 8732  5754  5751 1
 8733  5754  5752 1
 8734  5759  5755 1
 8735  5759  5756 1
 8736  5760  5757 1
 8737  5760  5758 1
 8738  5765  5761 1
 8739  5765  5762 1
 8740  5766  5763 1
 8741  5766  5764 1
 8742  5771  5767 1
 8743  5771  5768 1
 8744  5772  5769 1
 8745  5772  5770 1
 8746  5777  5773 1
 8747  5777  5774 1
 8748  5778  5775 1
 8749  5778  5776 1
 8750  5783  5779 1
 8751  5783  5780 1
 8752  5784  5781 1
 8753  5784  5782 1
 8754  5789  5785 1
 8755  5789  5786 1
 8756  5790  5787 1
 8757  5790  5788 1
 8758  5795  5791 1
 8759  5795  5792 1
 8760  5796  5793 1
 8761  5796  5794 1
 8762  5801  5797 1
 8763  5801  5798 1
 8764  5802  5799 1
 8765  5802  5800 1
 8766  5807  5803 1
 8767  5807  5804 1
 8768  5808  5805 1
 8769  5808  5806 1
 8770  5813  5809 1
 8771  5813  5810 1
 8772  5814  5811 1
 8773  5814  5812 1
 8774  5819  5815 1
 8775  5819  5816 1
 8776  5820  5817 1
 8777  5820  5818 1
 8778  5825  5821 1
 8779  5825  5822 1
 8780  5826  5823 1
 8781  5826  5824 1
 8782  5831  5827 1
 8783  5831  5828 1
 8784  5832  5829 1
 8785  5832  5830 1
 8786  5837  5833 1
 8787  5837  5834 1
 8788  5838  5835 1
 8789  5838  5836 1
 8790  5843  5839 1
 8791  5843  5840 1
 8792  5844  5841 1
 8793  5844  5842 1
 8794  5849  5845 1
 8795  5849  5846 1
 8796  5850  5847 1
 8797  5850  5848 1
 8798  5855  5851 1
 8799  5855  5852 1
 8800  5856  5853 1
 8801  5856  5854 1
 8802  5861  5857 1
 8803  5861  5858 1
 8804  5862  5859 1
 8805  5862  5860 1
 8806  5867  5863 1
 8807  5867  5864 1
 8808  5868  5865 1
 8809  5868  5866 1
 8810  5873  5869 1
 8811  5873  5870 1
 8812  5874  5871 1
 8813  5874  5872 1
 8814  5879  5875 1
 8815  5879  5876 1
 8816  5880  5877 1
 8817  5880  5878 1
 8818  5885  5881 1
 8819  5885  5882 1
 8820  5886  5883 1
 8821  5886  5884 1
 8822  5891  5887 1
 8823  5891  5888 1
 8824  5892  5889 1
 8825  5892  5890 1
 8826  5897  5893 1
 8827  5897  5894 1
 8828  5898  5895 1
 8829  5898  5896 1
 8830  5903  5899 1
 8831  5903  5900 1
 8832  5904  5901 1
 8833  5904  5902 1
 8834  5909  5905 1
 8835  5909  5906 1
 8836  5910  5907 1
 8837  5910  5908 1
 8838  5915  5911 1
 8839  5915  5912 1
 8840  5916  5913 1
 8841  5916  5914 1
 8842  5921  5917 1
 8843  5921  5918 1
 8844  5922  5919 1
 8845  5922  5920 1
 8846  5927  5923 1
 8847  5927  5924 1
 8848  5928  5925 1
 8849  5928  5926 1
 8850  5933  5929 1
 8851  5933  5930 1
 8852  5934  5931 1
 8853  5934  5932 1
 8854  5939  5935 1
 8855  5939  5936 1
 8856  5940  5937 1
 8857  5940  5938 1
 8858  5945  5941 1
 8859  5945  5942 1
 8860  5946  5943 1
 8861  5946  5944 1
 8862  5951  5947 1
 8863  5951  5948 1
 8864  5952  5949 1
 8865  5952  5950 1
 8866  5957  5953 1
 8867  5957  5954 1
 8868  5958  5955 1
 8869  5958  5956 1
 8870  5963  5959 1
 8871  5963  5960 1
 8872  5964  5961 1
 8873  5964  5962 1
 8874  5969  5965 1
 8875  5969  5966 1
 8876  5970  5967 1
 8877  5970  5968 1
 8878  5975  5971 1
 8879  5975  5972 1
 8880  5976  5973 1
 8881  5976  5974 1
 8882  5981  5977 1
 8883  5981  5978 1
 8884  5982  5979 1
 8885  5982  5980 1
 8886  5987  5983 1
 8887  5987  5984 1
 8888  5988  5985 1
 8889  5988  5986 1
 8890  5993  5989 1
 8891  5993  5990 1
 8892  5994  5991 1
 8893  5994  5992 1
 8894  5999  5995 1
 8895  5999  5996 1
 8896  6000  5997 1
 8897  6000  5998 1
 8898  6005  6001 1
 8899  6005  6002 1
 8900  6006  6003 1
 8901  6006  6004 1
 8902  6011  6007 1
 8903  6011  6008 1
 8904  6012  6009 1
 8905  6012  6010 1
 8906  6017  6013 1
 8907  6017  6014 1
 8908  6018  6015 1
 8909  6018  6016 1
 8910  6023  6019 1
 8911  6023  6020 1
 8912  6024  6021 1
 8913  6024  6022 1
 8914  6029  6025 1
 8915  6029  6026 1
 8916  6030  6027 1
 8917  6030  6028 1
 8918  6035  6031 1
 8919  6035  6032 1
 8920  6036  6033 1
 8921  6036  6034 1
 8922  6041  6037 1
 8923  6041  6038 1
 8924  6042  6039 1
 8925  6042  6040 1
 8926  6047  6043 1
 8927  6047  6044 1
 8928  6048  6045 1
 8929  6048  6046 1
 8930  6053  6049 1
 8931  6053  6050 1
 8932  6054  6051 1
 8933  6054  6052 1
 8934  6059  6055 1
 8935  6059  6056 1
 8936  6060  6057 1
 8937  6060  6058 1
 8938  6065  6061 1
 8939  6065  6062 1
 8940  6066  6063 1
 8941  6066  6064 1
 8942  6071  6067 1
 8943  6071  6068 1
 8944  6072  6069 1
 8945  6072  6070 1
 8946  6077  6073 1
 8947  6077  6074 1
 8948  6078  6075 1
 8949  6078  6076 1
 8950  6083  6079 1
 8951  6083  6080 1
 8952  6084  6081 1
 8953  6084  6082 1
 8954  6089  6085 1
 8955  6089  6086 1
 8956  6090  6087 1
 8957  6090  6088 1
 8958  6095  6091 1
 8959  6095  6092 1
 8960  6096  6093 1
 8961  6096  6094 1
 8962  6101  6097 1
 8963  6101  6098 1
 8964  6102  6099 1
 8965  6102  6100 1
 8966  6107  6103 1
 8967  6107  6104 1
 8968  6108  6105 1
 8969  6108  6106 1
 8970  6113  6109 1
 8971  6113  6110 1
 8972  6114  6111 1
 8973  6114  6112 1
 8974  6119  6115 1
 8975  6119  6116 1
 8976  6120  6117 1
 8977  6120  6118 1
 8978  6125  6121 1
 8979  6125  6122 1
 8980  6126  6123 1
 8981  6126  6124 1
 8982  6131  6127 1
 8983  6131  6128 1
 8984  6132  6129 1
 8985  6132  6130 1
 8986  6137  6133 1
 8987  6137  6134 1
 8988  6138  6135 1
 8989  6138  6136 1
 8990  6143  6139 1
 8991  6143  6140 1
 8992  6144  6141 1
 8993  6144  6142 1
 8994  6149  6145 1
 8995  6149  6146 1
 8996  6150  6147 1
 8997  6150  6148 1
 8998  6155  6151 1
 8999  6155  6152 1
 9000  6156  6153 1
 9001  6156  6154 1
 9002  6161  6157 1
 9003  6161  6158 1
 9004  6162  6159 1
 9005  6162  6160 1
 9006  6167  6163 1
 9007  6167  6164 1
 9008  6168  6165 1
 9009  6168  6166 1
 9010  6173  6169 1
 9011  6173  6170 1
 9012  6174  6171 1
 9013  6174  6172 1
 9014  6179  6175 1
 9015  6179  6176 1
 9016  6180  6177 1
 9017  6180  6178 1
 9018  6185  6181 1
 9019  6185  6182 1
 9020  6186  6183 1
 9021  6186  6184 1
 9022  6191  6187 1
 9023  6191  6188 1
 9024  6192  6189 1
 9025  6192  6190 1
 9026  6197  6193 1
 9027  6197  6194 1
 9028  6198  6195 1
 9029  6198  6196 1
 9030  6203  6199 1
 9031  6203  6200 1
 9032  6204  6201 1
 9033  6204  6202 1
 9034  6209  6205 1
 9035  6209  6206 1
 9036  6210  6207 1
 9037  6210  6208 1
 9038  6215  6211 1
 9039  6215  6212 1
 9040  6216  6213 1
 9041  6216  6214 1
 9042  6221  6217 1
 9043  6221  6218 1
 9044  6222  6219 1
 9045  6222  6220 1
 9046  6227  6223 1
 9047  6227  6224 1
 9048  6228  6225 1
 9049  6228  6226 1
 9050  6233  6229 1
 9051  6233  6230 1
 9052  6234  6231 1
 9053  6234  6232 1
 9054  6239  6235 1
 9055  6239  6236 1
 9056  6240  6237 1
 9057  6240  6238 1
 9058  6245  6241 1
 9059  6245  6242 1
 9060  6246  6243 1
 9061  6246  6244 1
 9062  6251  6247 1
 9063  6251  6248 1
 9064  6252  6249 1
 9065  6252  6250 1
 9066  6257  6253 1
 9067  6257  6254 1
 9068  6258  6255 1
 9069  6258  6256 1
 9070  6263  6259 1
 9071  6263  6260 1
 9072  6264  6261 1
 9073  6264  6262 1
 9074  6269  6265 1
 9075  6269  6266 1
 9076  6270  6267 1
 9077  6270  6268 1
 9078  6275  6271 1
 9079  6275  6272 1
 9080  6276  6273 1
 9081  6276  6274 1
 9082  6281  6277 1
 9083  6281  6278 1
 9084  6282  6279 1
 9085  6282  6280 1
 9086  6287  6283 1
 9087  6287  6284 1
 9088  6288  6285 1
 9089  6288  6286 1
 9090  6293  6289 1
 9091  6293  6290 1
 9092  6294  6291 1
 9093  6294  6292 1
 9094  6299  6295 1
 9095  6299  6296 1
 9096  6300  6297 1
 9097  6300  6298 1
 9098  6305  6301 1
 9099  6305  6302 1
 9100  6306  6303 1
 9101  6306  6304 1
 9102  6311  6307 1
 9103  6311  6308 1
 9104  6312  6309 1
 9105  6312  6310 1
 9106  6317  6313 1
 9107  6317  6314 1
 9108  6318  6315 1
 9109  6318  6316 1
 9110  6323  6319 1
 9111  6323  6320 1
 9112  6324  6321 1
 9113  6324  6322 1
 9114  6329  6325 1
 9115  6329  6326 1
 9116  6330  6327 1
 9117  6330  6328 1
 9118  6335  6331 1
 9119  6335  6332 1
 9120  6336  6333 1
 9121  6336  6334 1
 9122  6341  6337 1
 9123  6341  6338 1
 9124  6342  6339 1
 9125  6342  6340 1
 9126  6347  6343 1
 9127  6347  6344 1
 9128  6348  6345 1
 9129  6348  6346 1
 9130  6353  6349 1
 9131  6353  6350 1
 9132  6354  6351 1
 9133  6354  6352 1
 9134  6359  6355 1
 9135  6359  6356 1
 9136  6360  6357 1
 9137  6360  6358 1
 9138  6365  6361 1
 9139  6365  6362 1
 9140  6366  6363 1
 9141  6366  6364 1
 9142  6371  6367 1
 9143  6371  6368 1
 9144  6372  6369 1
 9145  6372  6370 1
 9146  6377  6373 1
 9147  6377  6374 1
 9148  6378  6375 1
 9149  6378  6376 1
 9150  6383  6379 1
 9151  6383  6380 1
 9152  6384  6381 1
 9153  6384  6382 1
 9154  6389  6385 1
 9155  6389  6386 1
 9156  6390  6387 1
 9157  6390  6388 1
 9158  6395  6391 1
 9159  6395  6392 1
 9160  6396  6393 1
 9161  6396  6394 1
 9162  6401  6397 1
 9163  6401  6398 1
 9164  6402  6399 1
 9165  6402  6400 1
 9166  6407  6403 1
 9167  6407  6404 1
 9168  6408  6405 1
 9169  6408  6406 1
 9170  6413  6409 1
 9171  6413  6410 1
 9172  6414  6411 1
 9173  6414  6412 1
 9174  6419  6415 1
 9175  6419  6416 1
 9176  6420  6417 1
 9177  6420  6418 1
 9178  6425  6421 1
 9179  6425  6422 1
 9180  6426  6423 1
 9181  6426  6424 1
 9182  6431  6427 1
 9183  6431  6428 1
 9184  6432  6429 1
 9185  6432  6430 1
 9186  6437  6433 1
 9187  6437  6434 1
 9188  6438  6435 1
 9189  6438  6436 1
 9190  6443  6439 1
 9191  6443  6440 1
 9192  6444  6441 1
 9193  6444  6442 1
 9194  6449  6445 1
 9195  6449  6446 1
 9196  6450  6447 1
 9197  6450  6448 1
 9198  6455  6451 1
 9199  6455  6452 1
 9200  6456  6453 1
 9201  6456  6454 1
 9202  6461  6457 1
 9203  6461  6458 1
 9204  6462  6459 1
 9205  6462  6460 1
 9206  6467  6463 1
 9207  6467  6464 1
 9208  6468  6465 1
 9209  6468  6466 1
 9210  6473  6469 1
 9211  6473  6470 1
 9212  6474  6471 1
 9213  6474  6472 1
 9214  6479  6475 1
 9215  6479  6476 1
 9216  6480  6477 1
 9217  6480  6478 1
 9218  6485  6481 1
 9219  6485  6482 1
 9220  6486  6483 1
 9221  6486  6484 1
 9222  6491  6487 1
 9223  6491  6488 1
 9224  6492  6489 1
 9225  6492  6490 1
 9226  6497  6493 1
 9227  6497  6494 1
 9228  6498  6495 1
 9229  6498  6496 1
 9230  6503  6499 1
 9231  6503  6500 1
 9232  6504  6501 1
 9233  6504  6502 1
 9234  6509  6505 1
 9235  6509  6506 1
 9236  6510  6507 1
 9237  6510  6508 1
 9238  6515  6511 1
 9239  6515  6512 1
 9240  6516  6513 1
 9241  6516  6514 1
 9242  6521  6517 1
 9243  6521  6518 1
 9244  6522  6519 1
 9245  6522  6520 1
 9246  6527  6523 1
 9247  6527  6524 1
 9248  6528  6525 1
 9249  6528  6526 1
 9250  6533  6529 1
 9251  6533  6530 1
 9252  6534  6531 1
 9253  6534  6532 1
 9254  6539  6535 1
 9255  6539  6536 1
 9256  6540  6537 1
 9257  6540  6538 1
 9258  6545  6541 1
 9259  6545  6542 1
 9260  6546  6543 1
 9261  6546  6544 1
 9262  6551  6547 1
 9263  6551  6548 1
 9264  6552  6549 1
 9265  6552  6550 1
 9266  6557  6553 1
 9267  6557  6554 1
 9268  6558  6555 1
 9269  6558  6556 1
 9270  6563  6559 1
 9271  6563  6560 1
 9272  6564  6561 1
 9273  6564  6562 1
 9274  6569  6565 1
 9275  6569  6566 1
 9276  6570  6567 1
 9277  6570  6568 1
 9278  6575  6571 1
 9279  6575  6572 1
 9280  6576  6573 1
 9281  6576  6574 1
 9282  6581  6577 1
 9283  6581  6578 1
 9284  6582  6579 1
 9285  6582  6580 1
 9286  6587  6583 1
 9287  6587  6584 1
 9288  6588  6585 1
 9289  6588  6586 1
 9290  6593  6589 1
 9291  6593  6590 1
 9292  6594  6591 1
 9293  6594  6592 1
 9294  6599  6595 1
 9295  6599  6596 1
 9296  6600  6597 1
 9297  6600  6598 1
 9298  6605  6601 1
 9299  6605  6602 1
 9300  6606  6603 1
 9301  6606  6604 1
 9302  6611  6607 1
 9303  6611  6608 1
 9304  6612  6609 1
 9305  6612  6610 1
 9306  6617  6613 1
 9307  6617  6614 1
 9308  6618  6615 1
 9309  6618  6616 1
 9310  6623  6619 1
 9311  6623  6620 1
 9312  6624  6621 1
 9313  6624  6622 1
 9314  6629  6625 1
 9315  6629  6626 1
 9316  6630  6627 1
 9317  6630  6628 1
 9318  6635  6631 1
 9319  6635  6632 1
 9320  6636  6633 1
 9321  6636  6634 1
 9322  6641  6637 1
 9323  6641  6638 1
 9324  6642  6639 1
 9325  6642  6640 1
 9326  6647  6643 1
 9327  6647  6644 1
 9328  6648  6645 1
 9329  6648  6646 1
 9330  6653  6649 1
 9331  6653  6650 1
 9332  6654  6651 1
 9333  6654  6652 1
 9334  6659  6655 1
 9335  6659  6656 1
 9336  6660  6657 1
 9337  6660  6658 1
 9338  6665  6661 1
 9339  6665  6662 1
 9340  6666  6663 1
 9341  6666  6664 1
 9342  6671  6667 1
 9343  6671  6668 1
 9344  6672  6669 1
 9345  6672  6670 1
 9346  6677  6673 1
 9347  6677  6674 1
 9348  6678  6675 1
 9349  6678  6676 1
 9350  6683  6679 1
 9351  6683  6680 1
 9352  6684  6681 1
 9353  6684  6682 1
 9354  6689  6685 1
 9355  6689  6686 1
 9356  6690  6687 1
 9357  6690  6688 1
 9358  6695  6691 1
 9359  6695  6692 1
 9360  6696  6693 1
 9361  6696  6694 1
 9362  6701  6697 1
 9363  6701  6698 1
 9364  6702  6699 1
 9365  6702  6700 1
 9366  6707  6703 1
 9367  6707  6704 1
 9368  6708  6705 1
 9369  6708  6706 1
 9370  6713  6709 1
 9371  6713  6710 1
 9372  6714  6711 1
 9373  6714  6712 1
 9374  6719  6715 1
 9375  6719  6716 1
 9376  6720  6717 1
 9377  6720  6718 1
 9378  6725  6721 1
 9379  6725  6722 1
 9380  6726  6723 1
 9381  6726  6724 1
 9382  6731  6727 1
 9383  6731  6728 1
 9384  6732  6729 1
 9385  6732  6730 1
 9386  6737  6733 1
 9387  6737  6734 1
 9388  6738  6735 1
 9389  6738  6736 1
 9390  6743  6739 1
 9391  6743  6740 1
 9392  6744  6741 1
 9393  6744  6742 1
 9394  6749  6745 1
 9395  6749  6746 1
 9396  6750  6747 1
 9397  6750  6748 1
 9398  6755  6751 1
 9399  6755  6752 1
 9400  6756  6753 1
 9401  6756  6754 1
 9402  6761  6757 1
 9403  6761  6758 1
 9404  6762  6759 1
 9405  6762  6760 1
 9406  6767  6763 1
 9407  6767  6764 1
 9408  6768  6765 1
 9409  6768  6766 1
 9410  6773  6769 1
 9411  6773  6770 1
 9412  6774  6771 1
 9413  6774  6772 1
 9414  6779  6775 1
 9415  6779  6776 1
 9416  6780  6777 1
 9417  6780  6778 1
 9418  6785  6781 1
 9419  6785  6782 1
 9420  6786  6783 1
 9421  6786  6784 1
 9422  6791  6787 1
 9423  6791  6788 1
 9424  6792  6789 1
 9425  6792  6790 1
 9426  6797  6793 1
 9427  6797  6794 1
 9428  6798  6795 1
 9429  6798  6796 1
 9430  6803  6799 1
 9431  6803  6800 1
 9432  6804  6801 1
 9433  6804  6802 1
 9434  6809  6805 1
 9435  6809  6806 1
 9436  6810  6807 1
 9437  6810  6808 1
 9438  6815  6811 1
 9439  6815  6812 1
 9440  6816  6813 1
 9441  6816  6814 1
 9442  6821  6817 1
 9443  6821  6818 1
 9444  6822  6819 1
 9445  6822  6820 1
 9446  6827  6823 1
 9447  6827  6824 1
 9448  6828  6825 1
 9449  6828  6826 1
 9450  6833  6829 1
 9451  6833  6830 1
 9452  6834  6831 1
 9453  6834  6832 1
 9454  6839  6835 1
 9455  6839  6836 1
 9456  6840  6837 1
 9457  6840  6838 1
 9458  6845  6841 1
 9459  6845  6842 1
 9460  6846  6843 1
 9461  6846  6844 1
 9462  6851  6847 1
 9463  6851  6848 1
 9464  6852  6849 1
 9465  6852  6850 1
 9466  6857  6853 1
 9467  6857  6854 1
 9468  6858  6855 1
 9469  6858  6856 1
 9470  6863  6859 1
 9471  6863  6860 1
 9472  6864  6861 1
 9473  6864  6862 1
 9474  6869  6865 1
 9475  6869  6866 1
 9476  6870  6867 1
 9477  6870  6868 1
 9478  6875  6871 1
 9479  6875  6872 1
 9480  6876  6873 1
 9481  6876  6874 1
 9482  6881  6877 1
 9483  6881  6878 1
 9484  6882  6879 1
 9485  6882  6880 1
 9486  6887  6883 1
 9487  6887  6884 1
 9488  6888  6885 1
 9489  6888  6886 1
 9490  6893  6889 1
 9491  6893  6890 1
 9492  6894  6891 1
 9493  6894  6892 1
 9494  6899  6895 1
 9495  6899  6896 1
 9496  6900  6897 1
 9497  6900  6898 1
 9498  6905  6901 1
 9499  6905  6902 1
 9500  6906  6903 1
 9501  6906  6904 1
 9502  6911  6907 1
 9503  6911  6908 1
 9504  6912  6909 1
 9505  6912  6910 1
 9506  6917  6913 1
 9507  6917  6914 1
 9508  6918  6915 1
 9509  6918  6916 1
 9510  6923  6919 1
 9511  6923  6920 1
 9512  6924  6921 1
 9513  6924  6922 1
 9514  6929  6925 1
 9515  6929  6926 1
 9516  6930  6927 1
 9517  6930  6928 1
 9518  6935  6931 1
 9519  6935  6932 1
 9520  6936  6933 1
 9521  6936  6934 1
 9522  6941  6937 1
 9523  6941  6938 1
 9524  6942  6939 1
 9525  6942  6940 1
 9526  6947  6943 1
 9527  6947  6944 1
 9528  6948  6945 1
 9529  6948  6946 1
 9530  6953  6949 1
 9531  6953  6950 1
 9532  6954  6951 1
 9533  6954  6952 1
 9534  6959  6955 1
 9535  6959  6956 1
 9536  6960  6957 1
 9537  6960  6958 1
 9538  6965  6961 1
 9539  6965  6962 1
 9540  6966  6963 1
 9541  6966  6964 1
 9542  6971  6967 1
 9543  6971  6968 1
 9544  6972  6969 1
 9545  6972  6970 1
 9546  6977  6973 1
 9547  6977  6974 1
 9548  6978  6975 1
 9549  6978  6976 1
 9550  6983  6979 1
 9551  6983  6980 1
 9552  6984  6981 1
 9553  6984  6982 1
 9554  6989  6985 1
 9555  6989  6986 1
 9556  6990  6987 1
 9557  6990  6988 1
 9558  6995  6991 1
 9559  6995  6992 1
 9560  6996  6993 1
 9561  6996  6994 1
 9562  7001  6997 1
 9563  7001  6998 1
 9564  7002  6999 1
 9565  7002  7000 1
 9566  7007  7003 1
 9567  7007  7004 1
 9568  7008  7005 1
 9569  7008  7006 1
 9570  7013  7009 1
 9571  7013  7010 1
 9572  7014  7011 1
 9573  7014  7012 1
 9574  7019  7015 1
 9575  7019  7016 1
 9576  7020  7017 1
 9577  7020  7018 1
 9578  7025  7021 1
 9579  7025  7022 1
 9580  7026  7023 1
 9581  7026  7024 1
 9582  7031  7027 1
 9583  7031  7028 1
 9584  7032  7029 1
 9585  7032  7030 1
 9586  7037  7033 1
 9587  7037  7034 1
 9588  7038  7035 1
 9589  7038  7036 1
 9590  7043  7039 1
 9591  7043  7040 1
 9592  7044  7041 1
 9593  7044  7042 1
 9594  7049  7045 1
 9595  7049  7046 1
 9596  7050  7047 1
 9597  7050  7048 1
 9598  7055  7051 1
 9599  7055  7052 1
 9600  7056  7053 1
 9601  7056  7054 1
 9602  7061  7057 1
 9603  7061  7058 1
 9604  7062  7059 1
 9605  7062  7060 1
 9606  7067  7063 1
 9607  7067  7064 1
 9608  7068  7065 1
 9609  7068  7066 1
 9610  7073  7069 1
 9611  7073  7070 1
 9612  7074  7071 1
 9613  7074  7072 1
 9614  7079  7075 1
 9615  7079  7076 1
 9616  7080  7077 1
 9617  7080  7078 1
 9618  7085  7081 1
 9619  7085  7082 1
 9620  7086  7083 1
 9621  7086  7084 1
 9622  7091  7087 1
 9623  7091  7088 1
 9624  7092  7089 1
 9625  7092  7090 1
 9626  7097  7093 1
 9627  7097  7094 1
 9628  7098  7095 1
 9629  7098  7096 1
 9630  7103  7099 1
 9631  7103  7100 1
 9632  7104  7101 1
 9633  7104  7102 1
 9634  7109  7105 1
 9635  7109  7106 1
 9636  7110  7107 1
 9637  7110  7108 1
 9638  7115  7111 1
 9639  7115  7112 1
 9640  7116  7113 1
 9641  7116  7114 1
 9642  7121  7117 1
 9643  7121  7118 1
 9644  7122  7119 1
 9645  7122  7120 1
 9646  7127  7123 1
 9647  7127  7124 1
 9648  7128  7125 1
 9649  7128  7126 1
 9650  7133  7129 1
 9651  7133  7130 1
 9652  7134  7131 1
 9653  7134  7132 1
 9654  7139  7135 1
 9655  7139  7136 1
 9656  7140  7137 1
 9657  7140  7138 1
 9658  7145  7141 1
 9659  7145  7142 1
 9660  7146  7143 1
 9661  7146  7144 1
 9662  7151  7147 1
 9663  7151  7148 1
 9664  7152  7149 1
 9665  7152  7150 1
 9666  7157  7153 1
 9667  7157  7154 1
 9668  7158  7155 1
 9669  7158  7156 1
 9670  7163  7159 1
 9671  7163  7160 1
 9672  7164  7161 1
 9673  7164  7162 1
 9674  7169  7165 1
 9675  7169  7166 1
 9676  7170  7167 1
 9677  7170  7168 1
 9678  7175  7171 1
 9679  7175  7172 1
 9680  7176  7173 1
 9681  7176  7174 1
 9682  7181  7177 1
 9683  7181  7178 1
 9684  7182  7179 1
 9685  7182  7180 1
 9686  7187  7183 1
 9687  7187  7184 1
 9688  7188  7185 1
 9689  7188  7186 1
 9690  7193  7189 1
 9691  7193  7190 1
 9692  7194  7191 1
 9693  7194  7192 1
 9694  7199  7195 1
 9695  7199  7196 1
 9696  7200  7197 1
 9697  7200  7198 1
 9698  7205  7201 1
 9699  7205  7202 1
 9700  7206  7203 1
 9701  7206  7204 1
 9702  7211  7207 1
 9703  7211  7208 1
 9704  7212  7209 1
 9705  7212  7210 1
 9706  7217  7213 1
 9707  7217  7214 1
 9708  7218  7215 1
 9709  7218  7216 1
 9710  7223  7219 1
 9711  7223  7220 1
 9712  7224  7221 1
 9713  7224  7222 1
 9714  7229  7225 1
 9715  7229  7226 1
 9716  7230  7227 1
 9717  7230  7228 1
 9718  7235  7231 1
 9719  7235  7232 1
 9720  7236  7233 1
 9721  7236  7234 1
 9722  7241  7237 1
 9723  7241  7238 1
 9724  7242  7239 1
 9725  7242  7240 1
 9726  7247  7243 1
 9727  7247  7244 1
 9728  7248  7245 1
 9729  7248  7246 1
 9730  7253  7249 1
 9731  7253  7250 1
 9732  7254  7251 1
 9733  7254  7252 1
 9734  7259  7255 1
 9735  7259  7256 1
 9736  7260  7257 1
 9737  7260  7258 1
 9738  7265  7261 1
 9739  7265  7262 1
 9740  7266  7263 1
 9741  7266  7264 1
 9742  7271  7267 1
 9743  7271  7268 1
 9744  7272  7269 1
 9745  7272  7270 1
 9746  7277  7273 1
 9747  7277  7274 1
 9748  7278  7275 1
 9749  7278  7276 1
 9750  7283  7279 1
 9751  7283  7280 1
 9752  7284  7281 1
 9753  7284  7282 1
 9754  7289  7285 1
 9755  7289  7286 1
 9756  7290  7287 1
 9757  7290  7288 1
 9758  7295  7291 1
 9759  7295  7292 1
 9760  7296  7293 1
 9761  7296  7294 1
 9762  7301  7297 1
 9763  7301  7298 1
 9764  7302  7299 1
 9765  7302  7300 1
 9766  7307  7303 1
 9767  7307  7304 1
 9768  7308  7305 1
 9769  7308  7306 1
 9770  7313  7309 1
 9771  7313  7310 1
 9772  7314  7311 1
 9773  7314  7312 1
 9774  7319  7315 1
 9775  7319  7316 1
 9776  7320  7317 1
 9777  7320  7318 1
 9778  7325  7321 1
 9779  7325  7322 1
 9780  7326  7323 1
 9781  7326  7324 1
 9782  7331  7327 1
 9783  7331  7328 1
 9784  7332  7329 1
 9785  7332  7330 1
 9786  7337  7333 1
 9787  7337  7334 1
 9788  7338  7335 1
 9789  7338  7336 1
 9790  7343  7339 1
 9791  7343  7340 1
 9792  7344  7341 1
 9793  7344  7342 1
 9794  7349  7345 1
 9795  7349  7346 1
 9796  7350  7347 1
 9797  7350  7348 1
 9798  7355  7351 1
 9799  7355  7352 1
 9800  7356  7353 1
 9801  7356  7354 1
 9802  7361  7357 1
 9803  7361  7358 1
 9804  7362  7359 1
 9805  7362  7360 1
 9806  7367  7363 1
 9807  7367  7364 1
 9808  7368  7365 1
 9809  7368  7366 1
 9810  7373  7369 1
 9811  7373  7370 1
 9812  7374  7371 1
 9813  7374  7372 1
 9814  7379  7375 1
 9815  7379  7376 1
 9816  7380  7377 1
 9817  7380  7378 1
 9818  7385  7381 1
 9819  7385  7382 1
 9820  7386  7383 1
 9821  7386  7384 1
 9822  7391  7387 1
 9823  7391  7388 1
 9824  7392  7389 1
 9825  7392  7390 1
 9826  7397  7393 1
 9827  7397  7394 1
 9828  7398  7395 1
 9829  7398  7396 1
 9830  7403  7399 1
 9831  7403  7400 1
 9832  7404  7401 1
 9833  7404  7402 1
 9834  7409  7405 1
 9835  7409  7406 1
 9836  7410  7407 1
 9837  7410  7408 1
 9838  7415  7411 1
 9839  7415  7412 1
 9840  7416  7413 1
 9841  7416  7414 1
 9842  7421  7417 1
 9843  7421  7418 1
 9844  7422  7419 1
 9845  7422  7420 1
 9846  7427  7423 1
 9847  7427  7424 1
 9848  7428  7425 1
 9849  7428  7426 1
 9850  7433  7429 1
 9851  7433  7430 1
 9852  7434  7431 1
 9853  7434  7432 1
 9854  7439  7435 1
 9855  7439  7436 1
 9856  7440  7437 1
 9857  7440  7438 1
 9858  7445  7441 1
 9859  7445  7442 1
 9860  7446  7443 1
 9861  7446  7444 1
 9862  7451  7447 1
 9863  7451  7448 1
 9864  7452  7449 1
 9865  7452  7450 1
 9866  7457  7453 1
 9867  7457  7454 1
 9868  7458  7455 1
 9869  7458  7456 1
 9870  7463  7459 1
 9871  7463  7460 1
 9872  7464  7461 1
 9873  7464  7462 1
 9874  7469  7465 1
 9875  7469  7466 1
 9876  7470  7467 1
 9877  7470  7468 1
 9878  7475  7471 1
 9879  7475  7472 1
 9880  7476  7473 1
 9881  7476  7474 1
 9882  7481  7477 1
 9883  7481  7478 1
 9884  7482  7479 1
 9885  7482  7480 1
 9886  7487  7483 1
 9887  7487  7484 1
 9888  7488  7485 1
 9889  7488  7486 1
 9890  7493  7489 1
 9891  7493  7490 1
 9892  7494  7491 1
 9893  7494  7492 1
 9894  7499  7495 1
 9895  7499  7496 1
 9896  7500  7497 1
 9897  7500  7498 1
 9898  7505  7501 1
 9899  7505  7502 1
 9900  7506  7503 1
 9901  7506  7504 1
 9902  7511  7507 1
 9903  7511  7508 1
 9904  7512  7509 1
 9905  7512  7510 1
 9906  7517  7513 1
 9907  7517  7514 1
 9908  7518  7515 1
 9909  7518  7516 1
 9910  7523  7519 1
 9911  7523  7520 1
 9912  7524  7521 1
 9913  7524  7522 1
 9914  7529  7525 1
 9915  7529  7526 1
 9916  7530  7527 1
 9917  7530  7528 1
 9918  7535  7531 1
 9919  7535  7532 1
 9920  7536  7533 1
 9921  7536  7534 1
 9922  7541  7537 1
 9923  7541  7538 1
 9924  7542  7539 1
 9925  7542  7540 1
 9926  7547  7543 1
 9927  7547  7544 1
 9928  7548  7545 1
 9929  7548  7546 1
 9930  7553  7549 1
 9931  7553  7550 1
 9932  7554  7551 1
 9933  7554  7552 1
 9934  7559  7555 1
 9935  7559  7556 1
 9936  7560  7557 1
 9937  7560  7558 1
 9938  7565  7561 1
 9939  7565  7562 1
 9940  7566  7563 1
 9941  7566  7564 1
 9942  7571  7567 1
 9943  7571  7568 1
 9944  7572  7569 1
 9945  7572  7570 1
 9946  7577  7573 1
 9947  7577  7574 1
 9948  7578  7575 1
 9949  7578  7576 1
 9950  7583  7579 1
 9951  7583  7580 1
 9952  7584  7581 1
 9953  7584  7582 1
 9954  7589  7585 1
 9955  7589  7586 1
 9956  7590  7587 1
 9957  7590  7588 1
 9958  7595  7591 1
 9959  7595  7592 1
 9960  7596  7593 1
 9961  7596  7594 1
 9962  7601  7597 1
 9963  7601  7598 1
 9964  7602  7599 1
 9965  7602  7600 1
 9966  7607  7603 1
 9967  7607  7604 1
 9968  7608  7605 1
 9969  7608  7606 1
 9970  7613  7609 1
 9971  7613  7610 1
 9972  7614  7611 1
 9973  7614  7612 1
 9974  7619  7615 1
 9975  7619  7616 1
 9976  7620  7617 1
 9977  7620  7618 1
 9978  7625  7621 1
 9979  7625  7622 1
 9980  7626  7623 1
 9981  7626  7624 1
 9982  7631  7627 1
 9983  7631  7628 1
 9984  7632  7629 1
 9985  7632  7630 1
 9986  7637  7633 1
 9987  7637  7634 1
 9988  7638  7635 1
 9989  7638  7636 1
 9990  7643  7639 1
 9991  7643  7640 1
 9992  7644  7641 1
 9993  7644  7642 1
 9994  7649  7645 1
 9995  7649  7646 1
 9996  7650  7647 1
 9997  7650  7648 1
 9998  7655  7651 1
 9999  7655  7652 1
10000  7656  7653 1
10001  7656  7654 1
10002  7661  7657 1
10003  7661  7658 1
10004  7662  7659 1
10005  7662  7660 1
10006  7667  7663 1
10007  7667  7664 1
10008  7668  7665 1
10009  7668  7666 1
10010  7673  7669 1
10011  7673  7670 1
10012  7674  7671 1
10013  7674  7672 1
10014  7679  7675 1
10015  7679  7676 1
10016  7680  7677 1
10017  7680  7678 1
10018  7685  7681 1
10019  7685  7682 1
10020  7686  7683 1
10021  7686  7684 1
10022  7691  7687 1
10023  7691  7688 1
10024  7692  7689 1
10025  7692  7690 1
10026  7697  7693 1
10027  7697  7694 1
10028  7698  7695 1
10029  7698  7696 1
10030  7703  7699 1
10031  7703  7700 1
10032  7704  7701 1
10033  7704  7702 1
10034  7709  7705 1
10035  7709  7706 1
10036  7710  7707 1
10037  7710  7708 1
10038  7715  7711 1
10039  7715  7712 1
10040  7716  7713 1
10041  7716  7714 1
10042  7721  7717 1
10043  7721  7718 1
10044  7722  7719 1
10045  7722  7720 1
10046  7727  7723 1
10047  7727  7724 1
10048  7728  7725 1
10049  7728  7726 1
10050  7733  7729 1
10051  7733  7730 1
10052  7734  7731 1
10053  7734  7732 1
10054  7739  7735 1
10055  7739  7736 1
10056  7740  7737 1
10057  7740  7738 1
10058  7745  7741 1
10059  7745  7742 1
10060  7746  7743 1
10061  7746  7744 1
10062  7751  7747 1
10063  7751  7748 1
10064  7752  7749 1
10065  7752  7750 1
10066  7757  7753 1
10067  7757  7754 1
10068  7758  7755 1
10069  7758  7756 1
10070  7763  7759 1
10071  7763  7760 1
10072  7764  7761 1
10073  7764  7762 1
10074  7769  7765 1
10075  7769  7766 1
10076  7770  7767 1
10077  7770  7768 1
10078  7775  7771 1
10079  7775  7772 1
10080  7776  7773 1
10081  7776  7774 1
10082  7781  7777 1
10083  7781  7778 1
10084  7782  7779 1
10085  7782  7780 1
10086  7787  7783 1
10087  7787  7784 1
10088  7788  7785 1
10089  7788  7786 1
10090  7793  7789 1
10091  7793  7790 1
10092  7794  7791 1
10093  7794  7792 1
10094  7799  7795 1
10095  7799  7796 1
10096  7800  7797 1
10097  7800  7798 1
10098  7805  7801 1
10099  7805  7802 1
10100  7806  7803 1
10101  7806  7804 1
10102  7811  7807 1
10103  7811  7808 1
10104  7812  7809 1
10105  7812  7810 1
10106  7817  7813 1
10107  7817  7814 1
10108  7818  7815 1
10109  7818  7816 1
10110  7823  7819 1
10111  7823  7820 1
10112  7824  7821 1
10113  7824  7822 1
10114  7829  7825 1
10115  7829  7826 1
10116  7830  7827 1
10117  7830  7828 1
10118  7835  7831 1
10119  7835  7832 1
10120  7836  7833 1
10121  7836  7834 1
10122  7841  7837 1
10123  7841  7838 1
10124  7842  7839 1
10125  7842  7840 1
10126  7847  7843 1
10127  7847  7844 1
10128  7848  7845 1
10129  7848  7846 1
10130  7853  7849 1
10131  7853  7850 1
10132  7854  7851 1
10133  7854  7852 1
10134  7859  7855 1
10135  7859  7856 1
10136  7860  7857 1
10137  7860  7858 1
10138  7865  7861 1
10139  7865  7862 1
10140  7866  7863 1
10141  7866  7864 1
10142  7871  7867 1
10143  7871  7868 1
10144  7872  7869 1
10145  7872  7870 1
10146  7877  7873 1
10147  7877  7874 1
10148  7878  7875 1
10149  7878  7876 1
10150  7883  7879 1
10151  7883  7880 1
10152  7884  7881 1
10153  7884  7882 1
10154  7889  7885 1
10155  7889  7886 1
10156  7890  7887 1
10157  7890  7888 1
10158  7895  7891 1
10159  7895  7892 1
10160  7896  7893 1
10161  7896  7894 1
10162  7901  7897 1
10163  7901  7898 1
10164  7902  7899 1
10165  7902  7900 1
10166  7907  7903 1
10167  7907  7904 1
10168  7908  7905 1
10169  7908  7906 1
10170  7913  7909 1
10171  7913  7910 1
10172  7914  7911 1
10173  7914  7912 1
10174  7919  7915 1
10175  7919  7916 1
10176  7920  7917 1
10177  7920  7918 1
10178  7925  7921 1
10179  7925  7922 1
10180  7926  7923 1
10181  7926  7924 1
10182  7931  7927 1
10183  7931  7928 1
10184  7932  7929 1
10185  7932  7930 1
10186  7937  7933 1
10187  7937  7934 1
10188  7938  7935 1
10189  7938  7936 1
10190  7943  7939 1
10191  7943  7940 1
10192  7944  7941 1
10193  7944  7942 1
10194  7949  7945 1
10195  7949  7946 1
10196  7950  7947 1
10197  7950  7948 1
10198  7955  7951 1
10199  7955  7952 1
10200  7956  7953 1
10201  7956  7954 1
10202  7961  7957 1
10203  7961  7958 1
10204  7962  7959 1
10205  7962  7960 1
10206  7967  7963 1
10207  7967  7964 1
10208  7968  7965 1
10209  7968  7966 1
10210  7973  7969 1
10211  7973  7970 1
10212  7974  7971 1
10213  7974  7972 1
10214  7979  7975 1
10215  7979  7976 1
10216  7980  7977 1
10217  7980  7978 1
10218  7985  7981 1
10219  7985  7982 1
10220  7986  7983 1
10221  7986  7984 1
10222  7991  7987 1
10223  7991  7988 1
10224  7992  7989 1
10225  7992  7990 1
10226  7997  7993 1
10227  7997  7994 1
10228  7998  7995 1
10229  7998  7996 1
10230  8003  7999 1
10231  8003  8000 1
10232  8004  8001 1
10233  8004  8002 1
10234  8009  8005 1
10235  8009  8006 1
10236  8010  8007 1
10237  8010  8008 1
10238  8015  8011 1
10239  8015  8012 1
10240  8016  8013 1
10241  8016  8014 1
10242  8021  8017 1
10243  8021  8018 1
10244  8022  8019 1
10245  8022  8020 1
10246  8027  8023 1
10247  8027  8024 1
10248  8028  8025 1
10249  8028  8026 1
10250  8033  8029 1
10251  8033  8030 1
10252  8034  8031 1
10253  8034  8032 1
10254  8039  8035 1
10255  8039  8036 1
10256  8040  8037 1
10257  8040  8038 1
10258  8045  8041 1
10259  8045  8042 1
10260  8046  8043 1
10261  8046  8044 1
10262  8051  8047 1
10263  8051  8048 1
10264  8052  8049 1
10265  8052  8050 1
10266  8057  8053 1
10267  8057  8054 1
10268  8058  8055 1
10269  8058  8056 1
10270  8063  8059 1
10271  8063  8060 1
10272  8064  8061 1
10273  8064  8062 1
10274  8069  8065 1
10275  8069  8066 1
10276  8070  8067 1
10277  8070  8068 1
10278  8075  8071 1
10279  8075  8072 1
10280  8076  8073 1
10281  8076  8074 1
10282  8081  8077 1
10283  8081  8078 1
10284  8082  8079 1
10285  8082  8080 1
10286  8087  8083 1
10287  8087  8084 1
10288  8088  8085 1
10289  8088  8086 1
10290  8093  8089 1
10291  8093  8090 1
10292  8094  8091 1
10293  8094  8092 1
10294  8099  8095 1
10295  8099  8096 1
10296  8100  8097 1
10297  8100  8098 1
10298  8105  8101 1
10299  8105  8102 1
10300  8106  8103 1
10301  8106  8104 1
10302  8111  8107 1
10303  8111  8108 1
10304  8112  8109 1
10305  8112  8110 1
10306  8117  8113 1
10307  8117  8114 1
10308  8118  8115 1
10309  8118  8116 1
10310  8123  8119 1
10311  8123  8120 1
10312  8124  8121 1
10313  8124  8122 1
10314  8129  8125 1
10315  8129  8126 1
10316  8130  8127 1
10317  8130  8128 1
10318  8135  8131 1
10319  8135  8132 1
10320  8136  8133 1
10321  8136  8134 1
10322  8141  8137 1
10323  8141  8138 1
10324  8142  8139 1
10325  8142  8140 1
10326  8147  8143 1
10327  8147  8144 1
10328  8148  8145 1
10329  8148  8146 1
10330  8153  8149 1
10331  8153  8150 1
10332  8154  8151 1
10333  8154  8152 1
10334  8159  8155 1
10335  8159  8156 1
10336  8160  8157 1
10337  8160  8158 1
10338  8165  8161 1
10339  8165  8162 1
10340  8166  8163 1
10341  8166  8164 1
10342  8171  8167 1
10343  8171  8168 1
10344  8172  8169 1
10345  8172  8170 1
10346  8177  8173 1
10347  8177  8174 1
10348  8178  8175 1
10349  8178  8176 1
10350  8183  8179 1
10351  8183  8180 1
10352  8184  8181 1
10353  8184  8182 1
10354  8189  8185 1
10355  8189  8186 1
10356  8190  8187 1
10357  8190  8188 1
10358  8195  8191 1
10359  8195  8192 1
10360  8196  8193 1
10361  8196  8194 1
10362  8201  8197 1
10363  8201  8198 1
10364  8202  8199 1
10365  8202  8200 1
10366  8207  8203 1
10367  8207  8204 1
10368  8208  8205 1
10369  8208  8206 1
10370  8213  8209 1
10371  8213  8210 1
10372  8214  8211 1
10373  8214  8212 1
10374  8219  8215 1
10375  8219  8216 1
10376  8220  8217 1
10377  8220  8218 1
10378  8225  8221 1
10379  8225  8222 1
10380  8226  8223 1
10381  8226  8224 1
10382  8231  8227 1
10383  8231  8228 1
10384  8232  8229 1
10385  8232  8230 1
10386  8237  8233 1
10387  8237  8234 1
10388  8238  8235 1
10389  8238  8236 1
10390  8243  8239 1
10391  8243  8240 1
10392  8244  8241 1
10393  8244  8242 1
10394  8249  8245 1
10395  8249  8246 1
10396  8250  8247 1
10397  8250  8248 1
10398  8255  8251 1
10399  8255  8252 1
10400  8256  8253 1
10401  8256  8254 1
10402  8261  8257 1
10403  8261  8258 1
10404  8262  8259 1
10405  8262  8260 1
10406  8267  8263 1
10407  8267  8264 1
10408  8268  8265 1
10409  8268  8266 1
10410  8273  8269 1
10411  8273  8270 1
10412  8274  8271 1
10413  8274  8272 1
10414  8279  8275 1
10415  8279  8276 1
10416  8280  8277 1
10417  8280  8278 1
10418  8285  8281 1
10419  8285  8282 1
10420  8286  8283 1
10421  8286  8284 1
10422  8291  8287 1
10423  8291  8288 1
10424  8292  8289 1
10425  8292  8290 1
10426  8297  8293 1
10427  8297  8294 1
10428  8298  8295 1
10429  8298  8296 1
10430  8303  8299 1
10431  8303  8300 1
10432  8304  8301 1
10433  8304  8302 1
10434  8309  8305 1
10435  8309  8306 1
10436  8310  8307 1
10437  8310  8308 1
10438  8315  8311 1
10439  8315  8312 1
10440  8316  8313 1
10441  8316  8314 1
10442  8321  8317 1
10443  8321  8318 1
10444  8322  8319 1
10445  8322  8320 1
10446  8327  8323 1
10447  8327  8324 1
10448  8328  8325 1
10449  8328  8326 1
10450  8333  8329 1
10451  8333  8330 1
10452  8334  8331 1
10453  8334  8332 1
10454  8339  8335 1
10455  8339  8336 1
10456  8340  8337 1
10457  8340  8338 1
10458  8345  8341 1
10459  8345  8342 1
10460  8346  8343 1
10461  8346  8344 1
10462  8351  8347 1
10463  8351  8348 1
10464  8352  8349 1
10465  8352  8350 1
10466  8357  8353 1
10467  8357  8354 1
10468  8358  8355 1
10469  8358  8356 1
10470  8363  8359 1
10471  8363  8360 1
10472  8364  8361 1
10473  8364  8362 1
10474  8369  8365 1
10475  8369  8366 1
10476  8370  8367 1
10477  8370  8368 1
10478  8375  8371 1
10479  8375  8372 1
10480  8376  8373 1
10481  8376  8374 1
10482  8381  8377 1
10483  8381  8378 1
10484  8382  8379 1
10485  8382  8380 1
10486  8387  8383 1
10487  8387  8384 1
10488  8388  8385 1
10489  8388  8386 1
10490  8393  8389 1
10491  8393  8390 1
10492  8394  8391 1
10493  8394  8392 1
10494  8399  8395 1
10495  8399  8396 1
10496  8400  8397 1
10497  8400  8398 1
10498  8405  8401 1
10499  8405  8402 1
10500  8406  8403 1
10501  8406  8404 1
10502  8411  8407 1
10503  8411  8408 1
10504  8412  8409 1
10505  8412  8410 1
10506  8417  8413 1
10507  8417  8414 1
10508  8418  8415 1
10509  8418  8416 1
10510  8423  8419 1
10511  8423  8420 1
10512  8424  8421 1
10513  8424  8422 1
10514  8429  8425 1
10515  8429  8426 1
10516  8430  8427 1
10517  8430  8428 1
10518  8435  8431 1
10519  8435  8432 1
10520  8436  8433 1
10521  8436  8434 1
10522  8441  8437 1
10523  8441  8438 1
10524  8442  8439 1
10525  8442  8440 1
10526  8447  8443 1
10527  8447  8444 1
10528  8448  8445 1
10529  8448  8446 1
10530  8453  8449 1
10531  8453  8450 1
10532  8454  8451 1
10533  8454  8452 1
10534  8459  8455 1
10535  8459  8456 1
10536  8460  8457 1
10537  8460  8458 1
10538  8465  8461 1
10539  8465  8462 1
10540  8466  8463 1
10541  8466  8464 1
10542  8471  8467 1
10543  8471  8468 1
10544  8472  8469 1
10545  8472  8470 1
10546  8477  8473 1
10547  8477  8474 1
10548  8478  8475 1
10549  8478  8476 1
10550  8483  8479 1
10551  8483  8480 1
10552  8484  8481 1
10553  8484  8482 1
10554  8489  8485 1
10555  8489  8486 1
10556  8490  8487 1
10557  8490  8488 1
10558  8495  8491 1
10559  8495  8492 1
10560  8496  8493 1
10561  8496  8494 1
10562  8501  8497 1
10563  8501  8498 1
10564  8502  8499 1
10565  8502  8500 1
10566  8507  8503 1
10567  8507  8504 1
10568  8508  8505 1
10569  8508  8506 1
10570  8513  8509 1
10571  8513  8510 1
10572  8514  8511 1
10573  8514  8512 1
10574  8519  8515 1
10575  8519  8516 1
10576  8520  8517 1
10577  8520  8518 1
10578  8525  8521 1
10579  8525  8522 1
10580  8526  8523 1
10581  8526  8524 1
10582  8531  8527 1
10583  8531  8528 1
10584  8532  8529 1
10585  8532  8530 1
10586  8537  8533 1
10587  8537  8534 1
10588  8538  8535 1
10589  8538  8536 1
10590  8543  8539 1
10591  8543  8540 1
10592  8544  8541 1
10593  8544  8542 1
10594  8549  8545 1
10595  8549  8546 1
10596  8550  8547 1
10597  8550  8548 1
10598  8555  8551 1
10599  8555  8552 1
10600  8556  8553 1
10601  8556  8554 1
10602  8561  8557 1
10603  8561  8558 1
10604  8562  8559 1
10605  8562  8560 1
10606  8567  8563 1
10607  8567  8564 1
10608  8568  8565 1
10609  8568  8566 1
10610  8573  8569 1
10611  8573  8570 1
10612  8574  8571 1
10613  8574  8572 1
10614  8579  8575 1
10615  8579  8576 1
10616  8580  8577 1
10617  8580  8578 1
10618  8585  8581 1
10619  8585  8582 1
10620  8586  8583 1
10621  8586  8584 1
10622  8591  8587 1
10623  8591  8588 1
10624  8592  8589 1
10625  8592  8590 1
10626  8597  8593 1
10627  8597  8594 1
10628  8598  8595 1
10629  8598  8596 1
10630  8603  8599 1
10631  8603  8600 1
10632  8604  8601 1
10633  8604  8602 1
10634  8609  8605 1
10635  8609  8606 1
10636  8610  8607 1
10637  8610  8608 1
10638  8615  8611 1
10639  8615  8612 1
10640  8616  8613 1
10641  8616  8614 1
10642  8621  8617 1
10643  8621  8618 1
10644  8622  8619 1
10645  8622  8620 1
10646  8627  8623 1
10647  8627  8624 1
10648  8628  8625 1
10649  8628  8626 1
10650  8633  8629 1
10651  8633  8630 1
10652  8634  8631 1
10653  8634  8632 1
10654  8639  8635 1
10655  8639  8636 1
10656  8640  8637 1
10657  8640  8638 1
10658  8645  8641 1
10659  8645  8642 1
10660  8646  8643 1
10661  8646  8644 1
10662  8651  8647 1
10663  8651  8648 1
10664  8652  8649 1
10665  8652  8650 1
10666  8657  8653 1
10667  8657  8654 1
10668  8658  8655 1
10669  8658  8656 1
10670  8663  8659 1
10671  8663  8660 1
10672  8664  8661 1
10673  8664  8662 1
10674  8669  8665 1
10675  8669  8666 1
10676  8670  8667 1
10677  8670  8668 1
10678  8675  8671 1
10679  8675  8672 1
10680  8676  8673 1
10681  8676  8674 1
10682  8681  8677 1
10683  8681  8678 1
10684  8682  8679 1
10685  8682  8680 1
10686  8687  8683 1
10687  8687  8684 1
10688  8688  8685 1
10689  8688  8686 1
10690  8693  8689 1
10691  8693  8690 1
10692  8694  8691 1
10693  8694  8692 1
10694  8699  8695 1
10695  8699  8696 1
10696  8700  8697 1
10697  8700  8698 1
10698  8705  8701 1
10699  8705  8702 1
10700  8706  8703 1
10701  8706  8704 1
10702  8711  8707 1
10703  8711  8708 1
10704  8712  8709 1
10705  8712  8710 1
10706  8717  8713 1
10707  8717  8714 1
10708  8718  8715 1
10709  8718  8716 1
10710  8723  8719 1
10711  8723  8720 1
10712  8724  8721 1
10713  8724  8722 1
10714  8729  8725 1
10715  8729  8726 1
10716  8730  8727 1
10717  8730  8728 1
10718  8735  8731 1
10719  8735  8732 1
10720  8736  8733 1
10721  8736  8734 1
10722  8741  8737 1
10723  8741  8738 1
10724  8742  8739 1
10725  8742  8740 1
10726  8747  8743 1
10727  8747  8744 1
10728  8748  8745 1
10729  8748  8746 1
10730  8753  8749 1
10731  8753  8750 1
10732  8754  8751 1
10733  8754  8752 1
10734  8759  8755 1
10735  8759  8756 1
10736  8760  8757 1
10737  8760  8758 1
10738  8765  8761 1
10739  8765  8762 1
10740  8766  8763 1
10741  8766  8764 1
10742  8771  8767 1
10743  8771  8768 1
10744  8772  8769 1
10745  8772  8770 1
10746  8777  8773 1
10747  8777  8774 1
10748  8778  8775 1
10749  8778  8776 1
10750  8783  8779 1
10751  8783  8780 1
10752  8784  8781 1
10753  8784  8782 1
10754  8789  8785 1
10755  8789  8786 1
10756  8790  8787 1
10757  8790  8788 1
10758  8795  8791 1
10759  8795  8792 1
10760  8796  8793 1
10761  8796  8794 1
10762  8801  8797 1
10763  8801  8798 1
10764  8802  8799 1
10765  8802  8800 1
10766  8807  8803 1
10767  8807  8804 1
10768  8808  8805 1
10769  8808  8806 1
10770  8813  8809 1
10771  8813  8810 1
10772  8814  8811 1
10773  8814  8812 1
10774  8819  8815 1
10775  8819  8816 1
10776  8820  8817 1
10777  8820  8818 1
10778  8825  8821 1
10779  8825  8822 1
10780  8826  8823 1
10781  8826  8824 1
10782  8831  8827 1
10783  8831  8828 1
10784  8832  8829 1
10785  8832  8830 1
10786  8837  8833 1
10787  8837  8834 1
10788  8838  8835 1
10789  8838  8836 1
10790  8843  8839 1
10791  8843  8840 1
10792  8844  8841 1
10793  8844  8842 1
10794  8849  8845 1
10795  8849  8846 1
10796  8850  8847 1
10797  8850  8848 1
10798  8855  8851 1
10799  8855  8852 1
10800  8856  8853 1
10801  8856  8854 1
10802  8861  8857 1
10803  8861  8858 1
10804  8862  8859 1
10805  8862  8860 1
10806  8867  8863 1
10807  8867  8864 1
10808  8868  8865 1
10809  8868  8866 1
10810  8873  8869 1
10811  8873  8870 1
10812  8874  8871 1
10813  8874  8872 1
10814  8879  8875 1
10815  8879  8876 1
10816  8880  8877 1
10817  8880  8878 1
10818  8885  8881 1
10819  8885  8882 1
10820  8886  8883 1
10821  8886  8884 1
10822  8891  8887 1
10823  8891  8888 1
10824  8892  8889 1
10825  8892  8890 1
10826  8897  8893 1
10827  8897  8894 1
10828  8898  8895 1
10829  8898  8896 1
10830  8903  8899 1
10831  8903  8900 1
10832  8904  8901 1
10833  8904  8902 1
10834  8909  8905 1
10835  8909  8906 1
10836  8910  8907 1
10837  8910  8908 1
10838  8915  8911 1
10839  8915  8912 1
10840  8916  8913 1
10841  8916  8914 1
10842  8921  8917 1
10843  8921  8918 1
10844  8922  8919 1
10845  8922  8920 1
10846  8927  8923 1
10847  8927  8924 1
10848  8928  8925 1
10849  8928  8926 1
10850  8933  8929 1
10851  8933  8930 1
10852  8934  8931 1
10853  8934  8932 1
10854  8939  8935 1
10855  8939  8936 1
10856  8940  8937 1
10857  8940  8938 1
10858  8945  8941 1
10859  8945  8942 1
10860  8946  8943 1
10861  8946  8944 1
10862  8951  8947 1
10863  8951  8948 1
10864  8952  8949 1
10865  8952  8950 1
10866  8957  8953 1
10867  8957  8954 1
10868  8958  8955 1
10869  8958  8956 1
10870  8963  8959 1
10871  8963  8960 1
10872  8964  8961 1
10873  8964  8962 1
10874  8969  8965 1
10875  8969  8966 1
10876  8970  8967 1
10877  8970  8968 1
10878  8975  8971 1
10879  8975  8972 1
10880  8976  8973 1
10881  8976  8974 1
10882  8981  8977 1
10883  8981  8978 1
10884  8982  8979 1
10885  8982  8980 1
10886  8987  8983 1
10887  8987  8984 1
10888  8988  8985 1
10889  8988  8986 1
10890  8993  8989 1
10891  8993  8990 1
10892  8994  8991 1
10893  8994  8992 1
10894  8999  8995 1
10895  8999  8996 1
10896  9000  8997 1
10897  9000  8998 1
10898  9005  9001 1
10899  9005  9002 1
10900  9006  9003 1
10901  9006  9004 1
10902  9011  9007 1
10903  9011  9008 1
10904  9012  9009 1
10905  9012  9010 1
10906  9017  9013 1
10907  9017  9014 1
10908  9018  9015 1
10909  9018  9016 1
10910  9023  9019 1
10911  9023  9020 1
10912  9024  9021 1
10913  9024  9022 1
10914  9029  9025 1
10915  9029  9026 1
10916  9030  9027 1
10917  9030  9028 1
10918  9035  9031 1
10919  9035  9032 1
10920  9036  9033 1
10921  9036  9034 1
10922  9041  9037 1
10923  9041  9038 1
10924  9042  9039 1
10925  9042  9040 1
10926  9047  9043 1
10927  9047  9044 1
10928  9048  9045 1
10929  9048  9046 1
10930  9053  9049 1
10931  9053  9050 1
10932  9054  9051 1
10933  9054  9052 1
10934  9059  9055 1
10935  9059  9056 1
10936  9060  9057 1
10937  9060  9058 1
10938  9065  9061 1
10939  9065  9062 1
10940  9066  9063 1
10941  9066  9064 1
10942  9071  9067 1
10943  9071  9068 1
10944  9072  9069 1
10945  9072  9070 1
10946  9077  9073 1
10947  9077  9074 1
10948  9078  9075 1
10949  9078  9076 1
10950  9083  9079 1
10951  9083  9080 1
10952  9084  9081 1
10953  9084  9082 1
10954  9089  9085 1
10955  9089  9086 1
10956  9090  9087 1
10957  9090  9088 1
10958  9095  9091 1
10959  9095  9092 1
10960  9096  9093 1
10961  9096  9094 1
10962  9101  9097 1
10963  9101  9098 1
10964  9102  9099 1
10965  9102  9100 1
10966  9107  9103 1
10967  9107  9104 1
10968  9108  9105 1
10969  9108  9106 1
10970  9113  9109 1
10971  9113  9110 1
10972  9114  9111 1
10973  9114  9112 1
10974  9119  9115 1
10975  9119  9116 1
10976  9120  9117 1
10977  9120  9118 1
10978  9125  9121 1
10979  9125  9122 1
10980  9126  9123 1
10981  9126  9124 1
10982  9131  9127 1
10983  9131  9128 1
10984  9132  9129 1
10985  9132  9130 1
10986  9137  9133 1
10987  9137  9134 1
10988  9138  9135 1
10989  9138  9136 1
10990  9143  9139 1
10991  9143  9140 1
10992  9144  9141 1
10993  9144  9142 1
10994  9149  9145 1
10995  9149  9146 1
10996  9150  9147 1
10997  9150  9148 1
10998  9155  9151 1
10999  9155  9152 1
11000  9156  9153 1
11001  9156  9154 1
11002  9161  9157 1
11003  9161  9158 1
11004  9162  9159 1
11005  9162  9160 1
11006  9167  9163 1
11007  9167  9164 1
11008  9168  9165 1
11009  9168  9166 1
11010  9173  9169 1
11011  9173  9170 1
11012  9174  9171 1
11013  9174  9172 1
11014  9179  9175 1
11015  9179  9176 1
11016  9180  9177 1
11017  9180  9178 1
11018  9185  9181 1
11019  9185  9182 1
11020  9186  9183 1
11021  9186  9184 1
11022  9191  9187 1
11023  9191  9188 1
11024  9192  9189 1
11025  9192  9190 1
11026  9197  9193 1
11027  9197  9194 1
11028  9198  9195 1
11029  9198  9196 1
11030  9203  9199 1
11031  9203  9200 1
11032  9204  9201 1
11033  9204  9202 1
11034  9209  9205 1
11035  9209  9206 1
11036  9210  9207 1
11037  9210  9208 1
11038  9215  9211 1
11039  9215  9212 1
11040  9216  9213 1
11041  9216  9214 1
11042  9221  9217 1
11043  9221  9218 1
11044  9222  9219 1
11045  9222  9220 1
11046  9227  9223 1
11047  9227  9224 1
11048  9228  9225 1
11049  9228  9226 1
11050  9233  9229 1
11051  9233  9230 1
11052  9234  9231 1
11053  9234  9232 1
11054  9239  9235 1
11055  9239  9236 1
11056  9240  9237 1
11057  9240  9238 1
11058  9245  9241 1
11059  9245  9242 1
11060  9246  9243 1
11061  9246  9244 1
11062  9251  9247 1
11063  9251  9248 1
11064  9252  9249 1
11065  9252  9250 1
11066  9257  9253 1
11067  9257  9254 1
11068  9258  9255 1
11069  9258  9256 1
11070  9263  9259 1
11071  9263  9260 1
11072  9264  9261 1
11073  9264  9262 1
11074  9269  9265 1
11075  9269  9266 1
11076  9270  9267 1
11077  9270  9268 1
11078  9275  9271 1
11079  9275  9272 1
11080  9276  9273 1
11081  9276  9274 1
11082  9281  9277 1
11083  9281  9278 1
11084  9282  9279 1
11085  9282  9280 1
11086  9287  9283 1
11087  9287  9284 1
11088  9288  9285 1
11089  9288  9286 1
11090  9293  9289 1
11091  9293  9290 1
11092  9294  9291 1
11093  9294  9292 1
11094  9299  9295 1
11095  9299  9296 1
11096  9300  9297 1
11097  9300  9298 1
11098  9305  9301 1
11099  9305  9302 1
11100  9306  9303 1
11101  9306  9304 1
11102  9311  9307 1
11103  9311  9308 1
11104  9312  9309 1
11105  9312  9310 1
11106  9317  9313 1
11107  9317  9314 1
11108  9318  9315 1
11109  9318  9316 1
11110  9323  9319 1
11111  9323  9320 1
11112  9324  9321 1
11113  9324  9322 1
11114  9329  9325 1
11115  9329  9326 1
11116  9330  9327 1
11117  9330  9328 1
11118  9335  9331 1
11119  9335  9332 1
11120  9336  9333 1
11121  9336  9334 1
11122  9341  9337 1
11123  9341  9338 1
11124  9342  9339 1
11125  9342  9340 1
11126  9347  9343 1
11127  9347  9344 1
11128  9348  9345 1
11129  9348  9346 1
11130  9353  9349 1
11131  9353  9350 1
11132  9354  9351 1
11133  9354  9352 1
11134  9359  9355 1
11135  9359  9356 1
11136  9360  9357 1
11137  9360  9358 1
11138  9365  9361 1
11139  9365  9362 1
11140  9366  9363 1
11141  9366  9364 1
11142  9371  9367 1
11143  9371  9368 1
11144  9372  9369 1
11145  9372  9370 1
11146  9377  9373 1
11147  9377  9374 1
11148  9378  9375 1
11149  9378  9376 1
11150  9383  9379 1
11151  9383  9380 1
11152  9384  9381 1
11153  9384  9382 1
11154  9389  9385 1
11155  9389  9386 1
11156  9390  9387 1
11157  9390  9388 1
11158  9395  9391 1
11159  9395  9392 1
11160  9396  9393 1
11161  9396  9394 1
11162  9401  9397 1
11163  9401  9398 1
11164  9402  9399 1
11165  9402  9400 1
11166  9407  9403 1
11167  9407  9404 1
11168  9408  9405 1
11169  9408  9406 1
11170  9413  9409 1
11171  9413  9410 1
11172  9414  9411 1
11173  9414  9412 1
11174  9419  9415 1
11175  9419  9416 1
11176  9420  9417 1
11177  9420  9418 1
11178  9425  9421 1
11179  9425  9422 1
11180  9426  9423 1
11181  9426  9424 1
11182  9431  9427 1
11183  9431  9428 1
11184  9432  9429 1
11185  9432  9430 1
11186  9437  9433 1
11187  9437  9434 1
11188  9438  9435 1
11189  9438  9436 1
11190  9443  9439 1
11191  9443  9440 1
11192  9444  9441 1
11193  9444  9442 1
11194  9449  9445 1
11195  9449  9446 1
11196  9450  9447 1
11197  9450  9448 1
11198  9455  9451 1
11199  9455  9452 1
11200  9456  9453 1
11201  9456  9454 1
11202  9461  9457 1
11203  9461  9458 1
11204  9462  9459 1
11205  9462  9460 1
11206  9467  9463 1
11207  9467  9464 1
11208  9468  9465 1
11209  9468  9466 1
11210  9473  9469 1
11211  9473  9470 1
11212  9474  9471 1
11213  9474  9472 1
11214  9479  9475 1
11215  9479  9476 1
11216  9480  9477 1
11217  9480  9478 1
11218  9485  9481 1
11219  9485  9482 1
11220  9486  9483 1
11221  9486  9484 1
11222  9491  9487 1
11223  9491  9488 1
11224  9492  9489 1
11225  9492  9490 1
11226  9497  9493 1
11227  9497  9494 1
11228  9498  9495 1
11229  9498  9496 1
11230  9503  9499 1
11231  9503  9500 1
11232  9504  9501 1
11233  9504  9502 1
11234  9509  9505 1
11235  9509  9506 1
11236  9510  9507 1
11237  9510  9508 1
11238  9515  9511 1
11239  9515  9512 1
11240  9516  9513 1
11241  9516  9514 1
11242  9521  9517 1
11243  9521  9518 1
11244  9522  9519 1
11245  9522  9520 1
11246  9527  9523 1
11247  9527  9524 1
11248  9528  9525 1
11249  9528  9526 1
11250  9533  9529 1
11251  9533  9530 1
11252  9534  9531 1
11253  9534  9532 1
11254  9539  9535 1
11255  9539  9536 1
11256  9540  9537 1
11257  9540  9538 1
11258  9545  9541 1
11259  9545  9542 1
11260  9546  9543 1
11261  9546  9544 1
11262  9551  9547 1
11263  9551  9548 1
11264  9552  9549 1
11265  9552  9550 1
11266  9557  9553 1
11267  9557  9554 1
11268  9558  9555 1
11269  9558  9556 1
11270  9563  9559 1
11271  9563  9560 1
11272  9564  9561 1
11273  9564  9562 1
11274  9569  9565 1
11275  9569  9566 1
11276  9570  9567 1
11277  9570  9568 1
11278  9575  9571 1
11279  9575  9572 1
11280  9576  9573 1
11281  9576  9574 1
11282  9581  9577 1
11283  9581  9578 1
11284  9582  9579 1
11285  9582  9580 1
11286  9587  9583 1
11287  9587  9584 1
11288  9588  9585 1
11289  9588  9586 1
11290  9593  9589 1
11291  9593  9590 1
11292  9594  9591 1
11293  9594  9592 1
11294  9599  9595 1
11295  9599  9596 1
11296  9600  9597 1
11297  9600  9598 1
11298  9605  9601 1
11299  9605  9602 1
11300  9606  9603 1
11301  9606  9604 1
11302  9611  9607 1
11303  9611  9608 1
11304  9612  9609 1
11305  9612  9610 1
11306  9617  9613 1
11307  9617  9614 1
11308  9618  9615 1
11309  9618  9616 1
11310  9623  9619 1
11311  9623  9620 1
11312  9624  9621 1
11313  9624  9622 1
11314  9629  9625 1
11315  9629  9626 1
11316  9630  9627 1
11317  9630  9628 1
11318  9635  9631 1
11319  9635  9632 1
11320  9636  9633 1
11321  9636  9634 1
11322  9641  9637 1
11323  9641  9638 1
11324  9642  9639 1
11325  9642  9640 1
11326  9647  9643 1
11327  9647  9644 1
11328  9648  9645 1
11329  9648  9646 1
11330  9653  9649 1
11331  9653  9650 1
11332  9654  9651 1
11333  9654  9652 1
11334  9659  9655 1
11335  9659  9656 1
11336  9660  9657 1
11337  9660  9658 1
11338  9665  9661 1
11339  9665  9662 1
11340  9666  9663 1
11341  9666  9664 1
11342  9671  9667 1
11343  9671  9668 1
11344  9672  9669 1
11345  9672  9670 1
11346  9677  9673 1
11347  9677  9674 1
11348  9678  9675 1
11349  9678  9676 1
11350  9683  9679 1
11351  9683  9680 1
11352  9684  9681 1
11353  9684  9682 1
11354  9689  9685 1
11355  9689  9686 1
11356  9690  9687 1
11357  9690  9688 1
11358  9695  9691 1
11359  9695  9692 1
11360  9696  9693 1
11361  9696  9694 1
11362  9701  9697 1
11363  9701  9698 1
11364  9702  9699 1
11365  9702  9700 1
11366  9707  9703 1
11367  9707  9704 1
11368  9708  9705 1
11369  9708  9706 1
11370  9713  9709 1
11371  9713  9710 1
11372  9714  9711 1
11373  9714  9712 1
11374  9719  9715 1
11375  9719  9716 1
11376  9720  9717 1
11377  9720  9718 1
11378  9725  9721 1
11379  9725  9722 1
11380  9726  9723 1
11381  9726  9724 1
11382  9731  9727 1
11383  9731  9728 1
11384  9732  9729 1
11385  9732  9730 1
11386  9737  9733 1
11387  9737  9734 1
11388  9738  9735 1
11389  9738  9736 1
11390  9743  9739 1
11391  9743  9740 1
11392  9744  9741 1
11393  9744  9742 1
11394  9749  9745 1
11395  9749  9746 1
11396  9750  9747 1
11397  9750  9748 1
11398  9755  9751 1
11399  9755  9752 1
11400  9756  9753 1
11401  9756  9754 1
11402  9761  9757 1
11403  9761  9758 1
11404  9762  9759 1
11405  9762  9760 1
11406  9767  9763 1
11407  9767  9764 1
11408  9768  9765 1
11409  9768  9766 1
11410  9773  9769 1
11411  9773  9770 1
11412  9774  9771 1
11413  9774  9772 1
11414  9779  9775 1
11415  9779  9776 1
11416  9780  9777 1
11417  9780  9778 1
11418  9785  9781 1
11419  9785  9782 1
11420  9786  9783 1
11421  9786  9784 1
11422  9791  9787 1
11423  9791  9788 1
11424  9792  9789 1
11425  9792  9790 1
11426  9797  9793 1
11427  9797  9794 1
11428  9798  9795 1
11429  9798  9796 1
11430  9803  9799 1
11431  9803  9800 1
11432  9804  9801 1
11433  9804  9802 1
11434  9809  9805 1
11435  9809  9806 1
11436  9810  9807 1
11437  9810  9808 1
11438  9815  9811 1
11439  9815  9812 1
11440  9816  9813 1
11441  9816  9814 1
11442  9821  9817 1
11443  9821  9818 1
11444  9822  9819 1
11445  9822  9820 1
11446  9827  9823 1
11447  9827  9824 1
11448  9828  9825 1
11449  9828  9826 1
11450  9833  9829 1
11451  9833  9830 1
11452  9834  9831 1
11453  9834  9832 1
11454  9839  9835 1
11455  9839  9836 1
11456  9840  9837 1
11457  9840  9838 1
11458  9845  9841 1
11459  9845  9842 1
11460  9846  9843 1
11461  9846  9844 1
11462  9851  9847 1
11463  9851  9848 1
11464  9852  9849 1
11465  9852  9850 1
11466  9857  9853 1
11467  9857  9854 1
11468  9858  9855 1
11469  9858  9856 1
11470  9863  9859 1
11471  9863  9860 1
11472  9864  9861 1
11473  9864  9862 1
11474  9869  9865 1
11475  9869  9866 1
11476  9870  9867 1
11477  9870  9868 1
11478  9875  9871 1
11479  9875  9872 1
11480  9876  9873 1
11481  9876  9874 1
11482  9881  9877 1
11483  9881  9878 1
11484  9882  9879 1
11485  9882  9880 1
11486  9887  9883 1
11487  9887  9884 1
11488  9888  9885 1
11489  9888  9886 1
11490  9893  9889 1
11491  9893  9890 1
11492  9894  9891 1
11493  9894  9892 1
11494  9899  9895 1
11495  9899  9896 1
11496  9900  9897 1
11497  9900  9898 1
11498  9905  9901 1
11499  9905  9902 1
11500  9906  9903 1
11501  9906  9904 1
11502  9911  9907 1
11503  9911  9908 1
11504  9912  9909 1
11505  9912  9910 1
11506  9917  9913 1
11507  9917  9914 1
11508  9918  9915 1
11509  9918  9916 1
11510  9923  9919 1
11511  9923  9920 1
11512  9924  9921 1
11513  9924  9922 1
11514  9929  9925 1
11515  9929  9926 1
11516  9930  9927 1
11517  9930  9928 1
11518  9935  9931 1
11519  9935  9932 1
11520  9936  9933 1
11521  9936  9934 1
11522  9941  9937 1
11523  9941  9938 1
11524  9942  9939 1
11525  9942  9940 1
11526  9947  9943 1
11527  9947  9944 1
11528  9948  9945 1
11529  9948  9946 1
11530  9953  9949 1
11531  9953  9950 1
11532  9954  9951 1
11533  9954  9952 1
11534  9959  9955 1
11535  9959  9956 1
11536  9960  9957 1
11537  9960  9958 1
11538  9965  9961 1
11539  9965  9962 1
11540  9966  9963 1
11541  9966  9964 1
11542  9971  9967 1
11543  9971  9968 1
11544  9972  9969 1
11545  9972  9970 1
11546  9977  9973 1
11547  9977  9974 1
11548  9978  9975 1
11549  9978  9976 1
11550  9983  9979 1
11551  9983  9980 1
11552  9984  9981 1
11553  9984  9982 1
11554  9989  9985 1
11555  9989  9986 1
11556  9990  9987 1
11557  9990  9988 1
11558  9995  9991 1
11559  9995  9992 1
11560  9996  9993 1
11561  9996  9994 1
11562 10001  9997 1
11563 10001  9998 1
11564 10002  9999 1
11565 10002 10000 1
11566 10007 10003 1
11567 10007 10004 1
11568 10008 10005 1
11569 10008 10006 1
11570 10013 10009 1
11571 10013 10010 1
11572 10014 10011 1
11573 10014 10012 1
11574 10019 10015 1
11575 10019 10016 1
11576 10020 10017 1
11577 10020 10018 1
11578 10025 10021 1
11579 10025 10022 1
11580 10026 10023 1
11581 10026 10024 1
11582 10031 10027 1
11583 10031 10028 1
11584 10032 10029 1
11585 10032 10030 1
11586 10037 10033 1
11587 10037 10034 1
11588 10038 10035 1
11589 10038 10036 1
11590 10043 10039 1
11591 10043 10040 1
11592 10044 10041 1
11593 10044 10042 1
11594 10049 10045 1
11595 10049 10046 1
11596 10050 10047 1
11597 10050 10048 1
11598 10055 10051 1
11599 10055 10052 1
11600 10056 10053 1
11601 10056 10054 1
11602 10061 10057 1
11603 10061 10058 1
11604 10062 10059 1
11605 10062 10060 1
11606 10067 10063 1
11607 10067 10064 1
11608 10068 10065 1
11609 10068 10066 1
11610 10073 10069 1
11611 10073 10070 1
11612 10074 10071 1
11613 10074 10072 1
11614 10079 10075 1
11615 10079 10076 1
11616 10080 10077 1
11617 10080 10078 1
11618 10085 10081 1
11619 10085 10082 1
11620 10086 10083 1
11621 10086 10084 1
11622 10091 10087 1
11623 10091 10088 1
11624 10092 10089 1
11625 10092 10090 1
11626 10097 10093 1
11627 10097 10094 1
11628 10098 10095 1
11629 10098 10096 1
11630 10103 10099 1
11631 10103 10100 1
11632 10104 10101 1
11633 10104 10102 1
11634 10109 10105 1
11635 10109 10106 1
11636 10110 10107 1
11637 10110 10108 1
11638 10115 10111 1
11639 10115 10112 1
11640 10116 10113 1
11641 10116 10114 1
11642 10121 10117 1
11643 10121 10118 1
11644 10122 10119 1
11645 10122 10120 1
11646 10127 10123 1
11647 10127 10124 1
11648 10128 10125 1
11649 10128 10126 1
11650 10133 10129 1
11651 10133 10130 1
11652 10134 10131 1
11653 10134 10132 1
11654 10139 10135 1
11655 10139 10136 1
11656 10140 10137 1
11657 10140 10138 1
11658 10145 10141 1
11659 10145 10142 1
11660 10146 10143 1
11661 10146 10144 1
11662 10151 10147 1
11663 10151 10148 1
11664 10152 10149 1
11665 10152 10150 1
11666 10157 10153 1
11667 10157 10154 1
11668 10158 10155 1
11669 10158 10156 1
11670 10163 10159 1
11671 10163 10160 1
11672 10164 10161 1
11673 10164 10162 1
11674 10169 10165 1
11675 10169 10166 1
11676 10170 10167 1
11677 10170 10168 1
11678 10175 10171 1
11679 10175 10172 1
11680 10176 10173 1
11681 10176 10174 1
11682 10181 10177 1
11683 10181 10178 1
11684 10182 10179 1
11685 10182 10180 1
11686 10187 10183 1
11687 10187 10184 1
11688 10188 10185 1
11689 10188 10186 1
11690 10193 10189 1
11691 10193 10190 1
11692 10194 10191 1
11693 10194 10192 1
11694 10199 10195 1
11695 10199 10196 1
11696 10200 10197 1
11697 10200 10198 1
11698 10205 10201 1
11699 10205 10202 1
11700 10206 10203 1
11701 10206 10204 1
11702 10211 10207 1
11703 10211 10208 1
11704 10212 10209 1
11705 10212 10210 1
11706 10217 10213 1
11707 10217 10214 1
11708 10218 10215 1
11709 10218 10216 1
11710 10223 10219 1
11711 10223 10220 1
11712 10224 10221 1
11713 10224 10222 1
11714 10229 10225 1
11715 10229 10226 1
11716 10230 10227 1
11717 10230 10228 1
11718 10235 10231 1
11719 10235 10232 1
11720 10236 10233 1
11721 10236 10234 1
11722 10241 10237 1
11723 10241 10238 1
11724 10242 10239 1
11725 10242 10240 1
11726 10247 10243 1
11727 10247 10244 1
11728 10248 10245 1
11729 10248 10246 1
11730 10253 10249 1
11731 10253 10250 1
11732 10254 10251 1
11733 10254 10252 1
11734 10259 10255 1
11735 10259 10256 1
11736 10260 10257 1
11737 10260 10258 1
11738 10265 10261 1
11739 10265 10262 1
11740 10266 10263 1
11741 10266 10264 1
11742 10271 10267 1
11743 10271 10268 1
11744 10272 10269 1
11745 10272 10270 1
11746 10277 10273 1
11747 10277 10274 1
11748 10278 10275 1
11749 10278 10276 1
11750 10283 10279 1
11751 10283 10280 1
11752 10284 10281 1
11753 10284 10282 1
11754 10289 10285 1
11755 10289 10286 1
11756 10290 10287 1
11757 10290 10288 1
11758 10295 10291 1
11759 10295 10292 1
11760 10296 10293 1
11761 10296 10294 1
11762 10301 10297 1
11763 10301 10298 1
11764 10302 10299 1
11765 10302 10300 1
11766 10307 10303 1
11767 10307 10304 1
11768 10308 10305 1
11769 10308 10306 1
11770 10313 10309 1
11771 10313 10310 1
11772 10314 10311 1
11773 10314 10312 1
11774 10319 10315 1
11775 10319 10316 1
11776 10320 10317 1
11777 10320 10318 1
11778 10325 10321 1
11779 10325 10322 1
11780 10326 10323 1
11781 10326 10324 1
11782 10331 10327 1
11783 10331 10328 1
11784 10332 10329 1
11785 10332 10330 1
11786 10337 10333 1
11787 10337 10334 1
11788 10338 10335 1
11789 10338 10336 1
11790 10343 10339 1
11791 10343 10340 1
11792 10344 10341 1
11793 10344 10342 1
11794 10349 10345 1
11795 10349 10346 1
11796 10350 10347 1
11797 10350 10348 1
11798 10355 10351 1
11799 10355 10352 1
11800 10356 10353 1
11801 10356 10354 1
11802 10361 10357 1
11803 10361 10358 1
11804 10362 10359 1
11805 10362 10360 1
11806 10367 10363 1
11807 10367 10364 1
11808 10368 10365 1
11809 10368 10366 1
11810 10373 10369 1
11811 10373 10370 1
11812 10374 10371 1
11813 10374 10372 1
11814 10379 10375 1
11815 10379 10376 1
11816 10380 10377 1
11817 10380 10378 1
11818 10385 10381 1
11819 10385 10382 1
11820 10386 10383 1
11821 10386 10384 1
11822 10391 10387 1
11823 10391 10388 1
11824 10392 10389 1
11825 10392 10390 1
11826 10397 10393 1
11827 10397 10394 1
11828 10398 10395 1
11829 10398 10396 1
11830 10403 10399 1
11831 10403 10400 1
11832 10404 10401 1
11833 10404 10402 1
11834 10409 10405 1
11835 10409 10406 1
11836 10410 10407 1
11837 10410 10408 1
11838 10415 10411 1
11839 10415 10412 1
11840 10416 10413 1
11841 10416 10414 1
11842 10421 10417 1
11843 10421 10418 1
11844 10422 10419 1
11845 10422 10420 1
11846 10427 10423 1
11847 10427 10424 1
11848 10428 10425 1
11849 10428 10426 1
11850 10433 10429 1
11851 10433 10430 1
11852 10434 10431 1
11853 10434 10432 1
11854 10439 10435 1
11855 10439 10436 1
11856 10440 10437 1
11857 10440 10438 1
11858 10445 10441 1
11859 10445 10442 1
11860 10446 10443 1
11861 10446 10444 1
11862 10451 10447 1
11863 10451 10448 1
11864 10452 10449 1
11865 10452 10450 1
11866 10457 10453 1
11867 10457 10454 1
11868 10458 10455 1
11869 10458 10456 1
11870 10463 10459 1
11871 10463 10460 1
11872 10464 10461 1
11873 10464 10462 1
11874 10469 10465 1
11875 10469 10466 1
11876 10470 10467 1
11877 10470 10468 1
11878 10475 10471 1
11879 10475 10472 1
11880 10476 10473 1
11881 10476 10474 1
11882 10481 10477 1
11883 10481 10478 1
11884 10482 10479 1
11885 10482 10480 1
11886 10487 10483 1
11887 10487 10484 1
11888 10488 10485 1
11889 10488 10486 1
11890 10493 10489 1
11891 10493 10490 1
11892 10494 10491 1
11893 10494 10492 1
11894 10499 10495 1
11895 10499 10496 1
11896 10500 10497 1
11897 10500 10498 1
11898 10505 10501 1
11899 10505 10502 1
11900 10506 10503 1
11901 10506 10504 1
11902 10511 10507 1
11903 10511 10508 1
11904 10512 10509 1
11905 10512 10510 1
11906 10517 10513 1
11907 10517 10514 1
11908 10518 10515 1
11909 10518 10516 1
11910 10523 10519 1
11911 10523 10520 1
11912 10524 10521 1
11913 10524 10522 1
11914 10529 10525 1
11915 10529 10526 1
11916 10530 10527 1
11917 10530 10528 1
11918 10535 10531 1
11919 10535 10532 1
11920 10536 10533 1
11921 10536 10534 1
11922 10541 10537 1
11923 10541 10538 1
11924 10542 10539 1
11925 10542 10540 1
11926 10547 10543 1
11927 10547 10544 1
11928 10548 10545 1
11929 10548 10546 1
11930 10553 10549 1
11931 10553 10550 1
11932 10554 10551 1
11933 10554 10552 1
11934 10559 10555 1
11935 10559 10556 1
11936 10560 10557 1
11937 10560 10558 1
11938 10565 10561 1
11939 10565 10562 1
11940 10566 10563 1
11941 10566 10564 1
11942 10571 10567 1
11943 10571 10568 1
11944 10572 10569 1
11945 10572 10570 1
11946 10577 10573 1
11947 10577 10574 1
11948 10578 10575 1
11949 10578 10576 1
11950 10583 10579 1
11951 10583 10580 1
11952 10584 10581 1
11953 10584 10582 1
11954 10589 10585 1
11955 10589 10586 1
11956 10590 10587 1
11957 10590 10588 1
11958 10595 10591 1
11959 10595 10592 1
11960 10596 10593 1
11961 10596 10594 1
11962 10601 10597 1
11963 10601 10598 1
11964 10602 10599 1
11965 10602 10600 1
11966 10607 10603 1
11967 10607 10604 1
11968 10608 10605 1
11969 10608 10606 1
11970 10613 10609 1
11971 10613 10610 1
11972 10614 10611 1
11973 10614 10612 1
11974 10619 10615 1
11975 10619 10616 1
11976 10620 10617 1
11977 10620 10618 1
11978 10625 10621 1
11979 10625 10622 1
11980 10626 10623 1
11981 10626 10624 1
11982 10631 10627 1
11983 10631 10628 1
11984 10632 10629 1
11985 10632 10630 1
11986 10637 10633 1
11987 10637 10634 1
11988 10638 10635 1
11989 10638 10636 1
11990 10643 10639 1
11991 10643 10640 1
11992 10644 10641 1
11993 10644 10642 1
11994 10649 10645 1
11995 10649 10646 1
11996 10650 10647 1
11997 10650 10648 1
11998 10655 10651 1
11999 10655 10652 1
12000 10656 10653 1
12001 10656 10654 1
12002 10661 10657 1
12003 10661 10658 1
12004 10662 10659 1
12005 10662 10660 1
12006 10667 10663 1
12007 10667 10664 1
12008 10668 10665 1
12009 10668 10666 1
12010 10673 10669 1
12011 10673 10670 1
12012 10674 10671 1
12013 10674 10672 1
12014 10679 10675 1
12015 10679 10676 1
12016 10680 10677 1
12017 10680 10678 1
12018 10685 10681 1
12019 10685 10682 1
12020 10686 10683 1
12021 10686 10684 1
12022 10691 10687 1
12023 10691 10688 1
12024 10692 10689 1
12025 10692 10690 1
12026 10697 10693 1
12027 10697 10694 1
12028 10698 10695 1
12029 10698 10696 1
12030 10703 10699 1
12031 10703 10700 1
12032 10704 10701 1
12033 10704 10702 1
12034 10709 10705 1
12035 10709 10706 1
12036 10710 10707 1
12037 10710 10708 1
12038 10715 10711 1
12039 10715 10712 1
12040 10716 10713 1
12041 10716 10714 1
12042 10721 10717 1
12043 10721 10718 1
12044 10722 10719 1
12045 10722 10720 1
12046 10727 10723 1
12047 10727 10724 1
12048 10728 10725 1
12049 10728 10726 1
12050 10733 10729 1
12051 10733 10730 1
12052 10734 10731 1
12053 10734 10732 1
12054 10739 10735 1
12055 10739 10736 1
12056 10740 10737 1
12057 10740 10738 1
12058 10745 10741 1
12059 10745 10742 1
12060 10746 10743 1
12061 10746 10744 1
12062 10751 10747 1
12063 10751 10748 1
12064 10752 10749 1
12065 10752 10750 1
12066 10757 10753 1
12067 10757 10754 1
12068 10758 10755 1
12069 10758 10756 1
12070 10763 10759 1
12071 10763 10760 1
12072 10764 10761 1
12073 10764 10762 1
12074 10769 10765 1
12075 10769 10766 1
12076 10770 10767 1
12077 10770 10768 1
12078 10775 10771 1
12079 10775 10772 1
12080 10776 10773 1
12081 10776 10774 1
12082 10781 10777 1
12083 10781 10778 1
12084 10782 10779 1
12085 10782 10780 1
12086 10787 10783 1
12087 10787 10784 1
12088 10788 10785 1
12089 10788 10786 1
12090 10793 10789 1
12091 10793 10790 1
12092 10794 10791 1
12093 10794 10792 1
12094 10799 10795 1
12095 10799 10796 1
12096 10800 10797 1
12097 10800 10798 1
12098 10805 10801 1
12099 10805 10802 1
12100 10806 10803 1
12101 10806 10804 1
12102 10811 10807 1
12103 10811 10808 1
12104 10812 10809 1
12105 10812 10810 1
12106 10817 10813 1
12107 10817 10814 1
12108 10818 10815 1
12109 10818 10816 1
12110 10823 10819 1
12111 10823 10820 1
12112 10824 10821 1
12113 10824 10822 1
12114 10829 10825 1
12115 10829 10826 1
12116 10830 10827 1
12117 10830 10828 1
12118 10835 10831 1
12119 10835 10832 1
12120 10836 10833 1
12121 10836 10834 1
12122 10841 10837 1
12123 10841 10838 1
12124 10842 10839 1
12125 10842 10840 1
12126 10847 10843 1
12127 10847 10844 1
12128 10848 10845 1
12129 10848 10846 1
12130 10853 10849 1
12131 10853 10850 1
12132 10854 10851 1
12133 10854 10852 1
12134 10859 10855 1
12135 10859 10856 1
12136 10860 10857 1
12137 10860 10858 1
12138 10865 10861 1
12139 10865 10862 1
12140 10866 10863 1
12141 10866 10864 1
12142 10871 10867 1
12143 10871 10868 1
12144 10872 10869 1
12145 10872 10870 1
12146 10877 10873 1
12147 10877 10874 1
12148 10878 10875 1
12149 10878 10876 1
12150 10883 10879 1
12151 10883 10880 1
12152 10884 10881 1
12153 10884 10882 1
12154 10889 10885 1
12155 10889 10886 1
12156 10890 10887 1
12157 10890 10888 1
12158 10895 10891 1
12159 10895 10892 1
12160 10896 10893 1
12161 10896 10894 1
12162 10901 10897 1
12163 10901 10898 1
12164 10902 10899 1
12165 10902 10900 1
12166 10907 10903 1
12167 10907 10904 1
12168 10908 10905 1
12169 10908 10906 1
12170 10913 10909 1
12171 10913 10910 1
12172 10914 10911 1
12173 10914 10912 1
12174 10919 10915 1
12175 10919 10916 1
12176 10920 10917 1
12177 10920 10918 1
12178 10925 10921 1
12179 10925 10922 1
12180 10926 10923 1
12181 10926 10924 1
12182 10931 10927 1
12183 10931 10928 1
12184 10932 10929 1
12185 10932 10930 1
12186 10937 10933 1
12187 10937 10934 1
12188 10938 10935 1
12189 10938 10936 1
12190 10943 10939 1
12191 10943 10940 1
12192 10944 10941 1
12193 10944 10942 1
12194 10949 10945 1
12195 10949 10946 1
12196 10950 10947 1
12197 10950 10948 1
12198 10955 10951 1
12199 10955 10952 1
12200 10956 10953 1
12201 10956 10954 1
12202 10961 10957 1
12203 10961 10958 1
12204 10962 10959 1
12205 10962 10960 1
12206 10967 10963 1
12207 10967 10964 1
12208 10968 10965 1
12209 10968 10966 1
12210 10973 10969 1
12211 10973 10970 1
12212 10974 10971 1
12213 10974 10972 1
12214 10979 10975 1
12215 10979 10976 1
12216 10980 10977 1
12217 10980 10978 1
12218 10985 10981 1
12219 10985 10982 1
12220 10986 10983 1
12221 10986 10984 1
12222 10991 10987 1
12223 10991 10988 1
12224 10992 10989 1
12225 10992 10990 1
12226 10997 10993 1
12227 10997 10994 1
12228 10998 10995 1
12229 10998 10996 1
12230 11003 10999 1
12231 11003 11000 1
12232 11004 11001 1
12233 11004 11002 1
12234 11009 11005 1
12235 11009 11006 1
12236 11010 11007 1
12237 11010 11008 1
12238 11015 11011 1
12239 11015 11012 1
12240 11016 11013 1
12241 11016 11014 1
12242 11021 11017 1
12243 11021 11018 1
12244 11022 11019 1
12245 11022 11020 1
12246 11027 11023 1
12247 11027 11024 1
12248 11028 11025 1
12249 11028 11026 1
12250 11033 11029 1
12251 11033 11030 1
12252 11034 11031 1
12253 11034 11032 1
12254 11039 11035 1
12255 11039 11036 1
12256 11040 11037 1
12257 11040 11038 1
12258 11045 11041 1
12259 11045 11042 1
12260 11046 11043 1
12261 11046 11044 1
12262 11051 11047 1
12263 11051 11048 1
12264 11052 11049 1
12265 11052 11050 1
12266 11057 11053 1
12267 11057 11054 1
12268 11058 11055 1
12269 11058 11056 1
12270 11063 11059 1
12271 11063 11060 1
12272 11064 11061 1
12273 11064 11062 1
12274 11069 11065 1
12275 11069 11066 1
12276 11070 11067 1
12277 11070 11068 1
12278 11075 11071 1
12279 11075 11072 1
12280 11076 11073 1
12281 11076 11074 1
12282 11081 11077 1
12283 11081 11078 1
12284 11082 11079 1
12285 11082 11080 1
12286 11087 11083 1
12287 11087 11084 1
12288 11088 11085 1
12289 11088 11086 1
12290 11093 11089 1
12291 11093 11090 1
12292 11094 11091 1
12293 11094 11092 1
12294 11099 11095 1
12295 11099 11096 1
12296 11100 11097 1
12297 11100 11098 1
12298 11105 11101 1
12299 11105 11102 1
12300 11106 11103 1
12301 11106 11104 1
12302 11111 11107 1
12303 11111 11108 1
12304 11112 11109 1
12305 11112 11110 1
12306 11117 11113 1
12307 11117 11114 1
12308 11118 11115 1
12309 11118 11116 1
12310 11123 11119 1
12311 11123 11120 1
12312 11124 11121 1
12313 11124 11122 1
12314 11129 11125 1
12315 11129 11126 1
12316 11130 11127 1
12317 11130 11128 1
12318 11135 11131 1
12319 11135 11132 1
12320 11136 11133 1
12321 11136 11134 1
12322 11141 11137 1
12323 11141 11138 1
12324 11142 11139 1
12325 11142 11140 1
12326 11147 11143 1
12327 11147 11144 1
12328 11148 11145 1
12329 11148 11146 1
12330 11153 11149 1
12331 11153 11150 1
12332 11154 11151 1
12333 11154 11152 1
12334 11159 11155 1
12335 11159 11156 1
12336 11160 11157 1
12337 11160 11158 1
12338 11165 11161 1
12339 11165 11162 1
12340 11166 11163 1
12341 11166 11164 1
12342 11171 11167 1
12343 11171 11168 1
12344 11172 11169 1
12345 11172 11170 1
12346 11177 11173 1
12347 11177 11174 1
12348 11178 11175 1
12349 11178 11176 1
12350 11183 11179 1
12351 11183 11180 1
12352 11184 11181 1
12353 11184 11182 1
12354 11189 11185 1
12355 11189 11186 1
12356 11190 11187 1
12357 11190 11188 1
12358 11195 11191 1
12359 11195 11192 1
12360 11196 11193 1
12361 11196 11194 1
12362 11201 11197 1
12363 11201 11198 1
12364 11202 11199 1
12365 11202 11200 1
12366 11207 11203 1
12367 11207 11204 1
12368 11208 11205 1
12369 11208 11206 1
12370 11213 11209 1
12371 11213 11210 1
12372 11214 11211 1
12373 11214 11212 1
12374 11219 11215 1
12375 11219 11216 1
12376 11220 11217 1
12377 11220 11218 1
12378 11225 11221 1
12379 11225 11222 1
12380 11226 11223 1
12381 11226 11224 1
12382 11231 11227 1
12383 11231 11228 1
12384 11232 11229 1
12385 11232 11230 1
12386 11237 11233 1
12387 11237 11234 1
12388 11238 11235 1
12389 11238 11236 1
12390 11243 11239 1
12391 11243 11240 1
12392 11244 11241 1
12393 11244 11242 1
12394 11249 11245 1
12395 11249 11246 1
12396 11250 11247 1
12397 11250 11248 1
12398 11255 11251 1
12399 11255 11252 1
12400 11256 11253 1
12401 11256 11254 1
12402 11261 11257 1
12403 11261 11258 1
12404 11262 11259 1
12405 11262 11260 1
12406 11267 11263 1
12407 11267 11264 1
12408 11268 11265 1
12409 11268 11266 1
12410 11273 11269 1
12411 11273 11270 1
12412 11274 11271 1
12413 11274 11272 1
12414 11279 11275 1
12415 11279 11276 1
12416 11280 11277 1
12417 11280 11278 1
12418 11285 11281 1
12419 11285 11282 1
12420 11286 11283 1
12421 11286 11284 1
12422 11291 11287 1
12423 11291 11288 1
12424 11292 11289 1
12425 11292 11290 1
12426 11297 11293 1
12427 11297 11294 1
12428 11298 11295 1
12429 11298 11296 1
12430 11303 11299 1
12431 11303 11300 1
12432 11304 11301 1
12433 11304 11302 1
12434 11309 11305 1
12435 11309 11306 1
12436 11310 11307 1
12437 11310 11308 1
12438 11315 11311 1
12439 11315 11312 1
12440 11316 11313 1
12441 11316 11314 1
12442 11321 11317 1
12443 11321 11318 1
12444 11322 11319 1
12445 11322 11320 1
12446 11327 11323 1
12447 11327 11324 1
12448 11328 11325 1
12449 11328 11326 1
12450 11333 11329 1
12451 11333 11330 1
12452 11334 11331 1
12453 11334 11332 1
12454 11339 11335 1
12455 11339 11336 1
12456 11340 11337 1
12457 11340 11338 1
12458 11345 11341 1
12459 11345 11342 1
12460 11346 11343 1
12461 11346 11344 1
12462 11351 11347 1
12463 11351 11348 1
12464 11352 11349 1
12465 11352 11350 1
12466 11357 11353 1
12467 11357 11354 1
12468 11358 11355 1
12469 11358 11356 1
12470 11363 11359 1
12471 11363 11360 1
12472 11364 11361 1
12473 11364 11362 1
12474 11369 11365 1
12475 11369 11366 1
12476 11370 11367 1
12477 11370 11368 1
12478 11375 11371 1
12479 11375 11372 1
12480 11376 11373 1
12481 11376 11374 1
12482 11381 11377 1
12483 11381 11378 1
12484 11382 11379 1
12485 11382 11380 1
12486 11387 11383 1
12487 11387 11384 1
12488 11388 11385 1
12489 11388 11386 1
12490 11393 11389 1
12491 11393 11390 1
12492 11394 11391 1
12493 11394 11392 1
12494 11399 11395 1
12495 11399 11396 1
12496 11400 11397 1
12497 11400 11398 1
12498 11405 11401 1
12499 11405 11402 1
12500 11406 11403 1
12501 11406 11404 1
12502 11411 11407 1
12503 11411 11408 1
12504 11412 11409 1
12505 11412 11410 1
12506 11417 11413 1
12507 11417 11414 1
12508 11418 11415 1
12509 11418 11416 1
12510 11423 11419 1
12511 11423 11420 1
12512 11424 11421 1
12513 11424 11422 1
12514 11429 11425 1
12515 11429 11426 1
12516 11430 11427 1
12517 11430 11428 1
12518 11435 11431 1
12519 11435 11432 1
12520 11436 11433 1
12521 11436 11434 1
12522 11441 11437 1
12523 11441 11438 1
12524 11442 11439 1
12525 11442 11440 1
12526 11447 11443 1
12527 11447 11444 1
12528 11448 11445 1
12529 11448 11446 1
12530 11453 11449 1
12531 11453 11450 1
12532 11454 11451 1
12533 11454 11452 1
12534 11459 11455 1
12535 11459 11456 1
12536 11460 11457 1
12537 11460 11458 1
12538 11465 11461 1
12539 11465 11462 1
12540 11466 11463 1
12541 11466 11464 1
12542 11471 11467 1
12543 11471 11468 1
12544 11472 11469 1
12545 11472 11470 1
12546 11477 11473 1
12547 11477 11474 1
12548 11478 11475 1
12549 11478 11476 1
12550 11483 11479 1
12551 11483 11480 1
12552 11484 11481 1
12553 11484 11482 1
12554 11489 11485 1
12555 11489 11486 1
12556 11490 11487 1
12557 11490 11488 1
12558 11495 11491 1
12559 11495 11492 1
12560 11496 11493 1
12561 11496 11494 1
12562 11501 11497 1
12563 11501 11498 1
12564 11502 11499 1
12565 11502 11500 1
12566 11507 11503 1
12567 11507 11504 1
12568 11508 11505 1
12569 11508 11506 1
12570 11513 11509 1
12571 11513 11510 1
12572 11514 11511 1
12573 11514 11512 1
12574 11519 11515 1
12575 11519 11516 1
12576 11520 11517 1
12577 11520 11518 1
12578 11525 11521 1
12579 11525 11522 1
12580 11526 11523 1
12581 11526 11524 1
12582 11531 11527 1
12583 11531 11528 1
12584 11532 11529 1
12585 11532 11530 1
12586 11537 11533 1
12587 11537 11534 1
12588 11538 11535 1
12589 11538 11536 1
12590 11543 11539 1
12591 11543 11540 1
12592 11544 11541 1
12593 11544 11542 1
12594 11549 11545 1
12595 11549 11546 1
12596 11550 11547 1
12597 11550 11548 1
12598 11555 11551 1
12599 11555 11552 1
12600 11556 11553 1
12601 11556 11554 1
12602 11561 11557 1
12603 11561 11558 1
12604 11562 11559 1
12605 11562 11560 1
12606 11567 11563 1
12607 11567 11564 1
12608 11568 11565 1
12609 11568 11566 1
12610 11573 11569 1
12611 11573 11570 1
12612 11574 11571 1
12613 11574 11572 1
12614 11579 11575 1
12615 11579 11576 1
12616 11580 11577 1
12617 11580 11578 1
12618 11585 11581 1
12619 11585 11582 1
12620 11586 11583 1
12621 11586 11584 1
12622 11591 11587 1
12623 11591 11588 1
12624 11592 11589 1
12625 11592 11590 1
12626 11597 11593 1
12627 11597 11594 1
12628 11598 11595 1
12629 11598 11596 1
12630 11603 11599 1
12631 11603 11600 1
12632 11604 11601 1
12633 11604 11602 1
12634 11609 11605 1
12635 11609 11606 1
12636 11610 11607 1
12637 11610 11608 1
12638 11615 11611 1
12639 11615 11612 1
12640 11616 11613 1
12641 11616 11614 1
12642 11621 11617 1
12643 11621 11618 1
12644 11622 11619 1
12645 11622 11620 1
12646 11627 11623 1
12647 11627 11624 1
12648 11628 11625 1
12649 11628 11626 1
12650 11633 11629 1
12651 11633 11630 1
12652 11634 11631 1
12653 11634 11632 1
12654 11639 11635 1
12655 11639 11636 1
12656 11640 11637 1
12657 11640 11638 1
12658 11645 11641 1
12659 11645 11642 1
12660 11646 11643 1
12661 11646 11644 1
12662 11651 11647 1
12663 11651 11648 1
12664 11652 11649 1
12665 11652 11650 1
12666 11657 11653 1
12667 11657 11654 1
12668 11658 11655 1
12669 11658 11656 1
12670 11663 11659 1
12671 11663 11660 1
12672 11664 11661 1
12673 11664 11662 1
12674 11669 11665 1
12675 11669 11666 1
12676 11670 11667 1
12677 11670 11668 1
12678 11675 11671 1
12679 11675 11672 1
12680 11676 11673 1
12681 11676 11674 1
12682 11681 11677 1
12683 11681 11678 1
12684 11682 11679 1
12685 11682 11680 1
12686 11687 11683 1
12687 11687 11684 1
12688 11688 11685 1
12689 11688 11686 1
12690 11693 11689 1
12691 11693 11690 1
12692 11694 11691 1
12693 11694 11692 1
12694 11699 11695 1
12695 11699 11696 1
12696 11700 11697 1
12697 11700 11698 1
12698 11705 11701 1
12699 11705 11702 1
12700 11706 11703 1
12701 11706 11704 1
12702 11711 11707 1
12703 11711 11708 1
12704 11712 11709 1
12705 11712 11710 1
12706 11717 11713 1
12707 11717 11714 1
12708 11718 11715 1
12709 11718 11716 1
12710 11723 11719 1
12711 11723 11720 1
12712 11724 11721 1
12713 11724 11722 1
12714 11729 11725 1
12715 11729 11726 1
12716 11730 11727 1
12717 11730 11728 1
12718 11735 11731 1
12719 11735 11732 1
12720 11736 11733 1
12721 11736 11734 1
12722 11741 11737 1
12723 11741 11738 1
12724 11742 11739 1
12725 11742 11740 1
12726 11747 11743 1
12727 11747 11744 1
12728 11748 11745 1
12729 11748 11746 1
12730 11753 11749 1
12731 11753 11750 1
12732 11754 11751 1
12733 11754 11752 1
12734 11759 11755 1
12735 11759 11756 1
12736 11760 11757 1
12737 11760 11758 1
12738 11765 11761 1
12739 11765 11762 1
12740 11766 11763 1
12741 11766 11764 1
12742 11771 11767 1
12743 11771 11768 1
12744 11772 11769 1
12745 11772 11770 1
12746 11777 11773 1
12747 11777 11774 1
12748 11778 11775 1
12749 11778 11776 1
12750 11783 11779 1
12751 11783 11780 1
12752 11784 11781 1
12753 11784 11782 1
12754 11789 11785 1
12755 11789 11786 1
12756 11790 11787 1
12757 11790 11788 1
12758 11795 11791 1
12759 11795 11792 1
12760 11796 11793 1
12761 11796 11794 1
12762 11801 11797 1
12763 11801 11798 1
12764 11802 11799 1
12765 11802 11800 1
12766 11807 11803 1
12767 11807 11804 1
12768 11808 11805 1
12769 11808 11806 1
12770 11813 11809 1
12771 11813 11810 1
12772 11814 11811 1
12773 11814 11812 1
12774 11819 11815 1
12775 11819 11816 1
12776 11820 11817 1
12777 11820 11818 1
12778 11825 11821 1
12779 11825 11822 1
12780 11826 11823 1
12781 11826 11824 1
12782 11831 11827 1
12783 11831 11828 1
12784 11832 11829 1
12785 11832 11830 1
12786 11837 11833 1
12787 11837 11834 1
12788 11838 11835 1
12789 11838 11836 1
12790 11843 11839 1
12791 11843 11840 1
12792 11844 11841 1
12793 11844 11842 1
12794 11849 11845 1
12795 11849 11846 1
12796 11850 11847 1
12797 11850 11848 1
12798 11855 11851 1
12799 11855 11852 1
12800 11856 11853 1
12801 11856 11854 1
12802 11861 11857 1
12803 11861 11858 1
12804 11862 11859 1
12805 11862 11860 1
12806 11867 11863 1
12807 11867 11864 1
12808 11868 11865 1
12809 11868 11866 1
12810 11873 11869 1
12811 11873 11870 1
12812 11874 11871 1
12813 11874 11872 1
12814 11879 11875 1
12815 11879 11876 1
12816 11880 11877 1
12817 11880 11878 1
12818 11885 11881 1
12819 11885 11882 1
12820 11886 11883 1
12821 11886 11884 1
12822 11891 11887 1
12823 11891 11888 1
12824 11892 11889 1
12825 11892 11890 1
12826 11897 11893 1
12827 11897 11894 1
12828 11898 11895 1
12829 11898 11896 1
12830 11903 11899 1
12831 11903 11900 1
12832 11904 11901 1
12833 11904 11902 1
12834 11909 11905 1
12835 11909 11906 1
12836 11910 11907 1
12837 11910 11908 1
12838 11915 11911 1
12839 11915 11912 1
12840 11916 11913 1
12841 11916 11914 1
12842 11921 11917 1
12843 11921 11918 1
12844 11922 11919 1
12845 11922 11920 1
12846 11927 11923 1
12847 11927 11924 1
12848 11928 11925 1
12849 11928 11926 1
12850 11933 11929 1
12851 11933 11930 1
12852 11934 11931 1
12853 11934 11932 1
12854 11939 11935 1
12855 11939 11936 1
12856 11940 11937 1
12857 11940 11938 1
12858 11945 11941 1
12859 11945 11942 1
12860 11946 11943 1
12861 11946 11944 1
12862 11951 11947 1
12863 11951 11948 1
12864 11952 11949 1
12865 11952 11950 1
12866 11957 11953 1
12867 11957 11954 1
12868 11958 11955 1
12869 11958 11956 1
12870 11963 11959 1
12871 11963 11960 1
12872 11964 11961 1
12873 11964 11962 1
12874 11969 11965 1
12875 11969 11966 1
12876 11970 11967 1
12877 11970 11968 1
12878 11975 11971 1
12879 11975 11972 1
12880 11976 11973 1
12881 11976 11974 1
12882 11981 11977 1
12883 11981 11978 1
12884 11982 11979 1
12885 11982 11980 1
12886 11987 11983 1
12887 11987 11984 1
12888 11988 11985 1
12889 11988 11986 1
12890 11993 11989 1
12891 11993 11990 1
12892 11994 11991 1
12893 11994 11992 1
12894 11999 11995 1
12895 11999 11996 1
12896 12000 11997 1
12897 12000 11998 1
12898 12005 12001 1
12899 12005 12002 1
12900 12006 12003 1
12901 12006 12004 1
12902 12011 12007 1
12903 12011 12008 1
12904 12012 12009 1
12905 12012 12010 1
12906 12017 12013 1
12907 12017 12014 1
12908 12018 12015 1
12909 12018 12016 1
12910 12023 12019 1
12911 12023 12020 1
12912 12024 12021 1
12913 12024 12022 1
12914 12029 12025 1
12915 12029 12026 1
12916 12030 12027 1
12917 12030 12028 1
12918 12035 12031 1
12919 12035 12032 1
12920 12036 12033 1
12921 12036 12034 1
12922 12041 12037 1
12923 12041 12038 1
12924 12042 12039 1
12925 12042 12040 1
12926 12047 12043 1
12927 12047 12044 1
12928 12048 12045 1
12929 12048 12046 1
12930 12053 12049 1
12931 12053 12050 1
12932 12054 12051 1
12933 12054 12052 1
12934 12059 12055 1
12935 12059 12056 1
12936 12060 12057 1
12937 12060 12058 1
12938 12065 12061 1
12939 12065 12062 1
12940 12066 12063 1
12941 12066 12064 1
12942 12071 12067 1
12943 12071 12068 1
12944 12072 12069 1
12945 12072 12070 1
12946 12077 12073 1
12947 12077 12074 1
12948 12078 12075 1
12949 12078 12076 1
12950 12083 12079 1
12951 12083 12080 1
12952 12084 12081 1
12953 12084 12082 1
12954 12089 12085 1
12955 12089 12086 1
12956 12090 12087 1
12957 12090 12088 1
12958 12095 12091 1
12959 12095 12092 1
12960 12096 12093 1
12961 12096 12094 1
12962 12101 12097 1
12963 12101 12098 1
12964 12102 12099 1
12965 12102 12100 1
12966 12107 12103 1
12967 12107 12104 1
12968 12108 12105 1
12969 12108 12106 1
12970 12113 12109 1
12971 12113 12110 1
12972 12114 12111 1
12973 12114 12112 1
12974 12119 12115 1
12975 12119 12116 1
12976 12120 12117 1
12977 12120 12118 1
12978 12125 12121 1
12979 12125 12122 1
12980 12126 12123 1
12981 12126 12124 1
12982 12131 12127 1
12983 12131 12128 1
12984 12132 12129 1
12985 12132 12130 1
12986 12137 12133 1
12987 12137 12134 1
12988 12138 12135 1
12989 12138 12136 1
12990 12143 12139 1
12991 12143 12140 1
12992 12144 12141 1
12993 12144 12142 1
12994 12149 12145 1
12995 12149 12146 1
12996 12150 12147 1
12997 12150 12148 1
12998 12155 12151 1
12999 12155 12152 1
13000 12156 12153 1
13001 12156 12154 1
13002 12161 12157 1
13003 12161 12158 1
13004 12162 12159 1
13005 12162 12160 1
13006 12167 12163 1
13007 12167 12164 1
13008 12168 12165 1
13009 12168 12166 1
13010 12173 12169 1
13011 12173 12170 1
13012 12174 12171 1
13013 12174 12172 1
13014 12179 12175 1
13015 12179 12176 1
13016 12180 12177 1
13017 12180 12178 1
13018 12185 12181 1
13019 12185 12182 1
13020 12186 12183 1
13021 12186 12184 1
13022 12191 12187 1
13023 12191 12188 1
13024 12192 12189 1
13025 12192 12190 1
13026 12197 12193 1
13027 12197 12194 1
13028 12198 12195 1
13029 12198 12196 1
13030 12203 12199 1
13031 12203 12200 1
13032 12204 12201 1
13033 12204 12202 1
13034 12209 12205 1
13035 12209 12206 1
13036 12210 12207 1
13037 12210 12208 1
13038 12215 12211 1
13039 12215 12212 1
13040 12216 12213 1
13041 12216 12214 1
13042 12221 12217 1
13043 12221 12218 1
13044 12222 12219 1
13045 12222 12220 1
13046 12227 12223 1
13047 12227 12224 1
13048 12228 12225 1
13049 12228 12226 1
13050 12233 12229 1
13051 12233 12230 1
13052 12234 12231 1
13053 12234 12232 1
13054 12239 12235 1
13055 12239 12236 1
13056 12240 12237 1
13057 12240 12238 1
13058 12245 12241 1
13059 12245 12242 1
13060 12246 12243 1
13061 12246 12244 1
13062 12251 12247 1
13063 12251 12248 1
13064 12252 12249 1
13065 12252 12250 1
13066 12257 12253 1
13067 12257 12254 1
13068 12258 12255 1
13069 12258 12256 1
13070 12263 12259 1
13071 12263 12260 1
13072 12264 12261 1
13073 12264 12262 1
13074 12269 12265 1
13075 12269 12266 1
13076 12270 12267 1
13077 12270 12268 1
13078 12275 12271 1
13079 12275 12272 1
13080 12276 12273 1
13081 12276 12274 1
13082 12281 12277 1
13083 12281 12278 1
13084 12282 12279 1
13085 12282 12280 1
13086 12287 12283 1
13087 12287 12284 1
13088 12288 12285 1
13089 12288 12286 1
13090 12293 12289 1
13091 12293 12290 1
13092 12294 12291 1
13093 12294 12292 1
13094 12299 12295 1
13095 12299 12296 1
13096 12300 12297 1
13097 12300 12298 1
13098 12305 12301 1
13099 12305 12302 1
13100 12306 12303 1
13101 12306 12304 1
13102 12311 12307 1
13103 12311 12308 1
13104 12312 12309 1
13105 12312 12310 1
13106 12317 12313 1
13107 12317 12314 1
13108 12318 12315 1
13109 12318 12316 1
13110 12323 12319 1
13111 12323 12320 1
13112 12324 12321 1
13113 12324 12322 1
13114 12329 12325 1
13115 12329 12326 1
13116 12330 12327 1
13117 12330 12328 1
13118 12335 12331 1
13119 12335 12332 1
13120 12336 12333 1
13121 12336 12334 1
13122 12341 12337 1
13123 12341 12338 1
13124 12342 12339 1
13125 12342 12340 1
13126 12347 12343 1
13127 12347 12344 1
13128 12348 12345 1
13129 12348 12346 1
13130 12353 12349 1
13131 12353 12350 1
13132 12354 12351 1
13133 12354 12352 1
13134 12359 12355 1
13135 12359 12356 1
13136 12360 12357 1
13137 12360 12358 1
13138 12365 12361 1
13139 12365 12362 1
13140 12366 12363 1
13141 12366 12364 1
13142 12371 12367 1
13143 12371 12368 1
13144 12372 12369 1
13145 12372 12370 1
13146 12377 12373 1
13147 12377 12374 1
13148 12378 12375 1
13149 12378 12376 1
13150 12383 12379 1
13151 12383 12380 1
13152 12384 12381 1
13153 12384 12382 1
13154 12389 12385 1
13155 12389 12386 1
13156 12390 12387 1
13157 12390 12388 1
13158 12395 12391 1
13159 12395 12392 1
13160 12396 12393 1
13161 12396 12394 1
13162 12401 12397 1
13163 12401 12398 1
13164 12402 12399 1
13165 12402 12400 1
13166 12407 12403 1
13167 12407 12404 1
13168 12408 12405 1
13169 12408 12406 1
13170 12413 12409 1
13171 12413 12410 1
13172 12414 12411 1
13173 12414 12412 1
13174 12419 12415 1
13175 12419 12416 1
13176 12420 12417 1
13177 12420 12418 1
13178 12425 12421 1
13179 12425 12422 1
13180 12426 12423 1
13181 12426 12424 1
13182 12431 12427 1
13183 12431 12428 1
13184 12432 12429 1
13185 12432 12430 1
13186 12437 12433 1
13187 12437 12434 1
13188 12438 12435 1
13189 12438 12436 1
13190 12443 12439 1
13191 12443 12440 1
13192 12444 12441 1
13193 12444 12442 1
13194 12449 12445 1
13195 12449 12446 1
13196 12450 12447 1
13197 12450 12448 1
13198 12455 12451 1
13199 12455 12452 1
13200 12456 12453 1
13201 12456 12454 1
13202 12461 12457 1
13203 12461 12458 1
13204 12462 12459 1
13205 12462 12460 1
13206 12467 12463 1
13207 12467 12464 1
13208 12468 12465 1
13209 12468 12466 1
13210 12473 12469 1
13211 12473 12470 1
13212 12474 12471 1
13213 12474 12472 1
13214 12479 12475 1
13215 12479 12476 1
13216 12480 12477 1
13217 12480 12478 1
13218 12485 12481 1
13219 12485 12482 1
13220 12486 12483 1
13221 12486 12484 1
13222 12491 12487 1
13223 12491 12488 1
13224 12492 12489 1
13225 12492 12490 1
13226 12497 12493 1
13227 12497 12494 1
13228 12498 12495 1
13229 12498 12496 1
13230 12503 12499 1
13231 12503 12500 1
13232 12504 12501 1
13233 12504 12502 1
13234 12509 12505 1
13235 12509 12506 1
13236 12510 12507 1
13237 12510 12508 1
13238 12515 12511 1
13239 12515 12512 1
13240 12516 12513 1
13241 12516 12514 1
13242 12521 12517 1
13243 12521 12518 1
13244 12522 12519 1
13245 12522 12520 1
13246 12527 12523 1
13247 12527 12524 1
13248 12528 12525 1
13249 12528 12526 1
13250 12533 12529 1
13251 12533 12530 1
13252 12534 12531 1
13253 12534 12532 1
13254 12539 12535 1
13255 12539 12536 1
13256 12540 12537 1
13257 12540 12538 1
13258 12545 12541 1
13259 12545 12542 1
13260 12546 12543 1
13261 12546 12544 1
13262 12551 12547 1
13263 12551 12548 1
13264 12552 12549 1
13265 12552 12550 1
13266 12557 12553 1
13267 12557 12554 1
13268 12558 12555 1
13269 12558 12556 1
13270 12563 12559 1
13271 12563 12560 1
13272 12564 12561 1
13273 12564 12562 1
13274 12569 12565 1
13275 12569 12566 1
13276 12570 12567 1
13277 12570 12568 1
13278 12575 12571 1
13279 12575 12572 1
13280 12576 12573 1
13281 12576 12574 1
13282 12581 12577 1
13283 12581 12578 1
13284 12582 12579 1
13285 12582 12580 1
13286 12587 12583 1
13287 12587 12584 1
13288 12588 12585 1
13289 12588 12586 1
13290 12593 12589 1
13291 12593 12590 1
13292 12594 12591 1
13293 12594 12592 1
13294 12599 12595 1
13295 12599 12596 1
13296 12600 12597 1
13297 12600 12598 1
13298 12605 12601 1
13299 12605 12602 1
13300 12606 12603 1
13301 12606 12604 1
13302 12611 12607 1
13303 12611 12608 1
13304 12612 12609 1
13305 12612 12610 1
13306 12617 12613 1
13307 12617 12614 1
13308 12618 12615 1
13309 12618 12616 1
13310 12623 12619 1
13311 12623 12620 1
13312 12624 12621 1
13313 12624 12622 1
13314 12629 12625 1
13315 12629 12626 1
13316 12630 12627 1
13317 12630 12628 1
13318 12635 12631 1
13319 12635 12632 1
13320 12636 12633 1
13321 12636 12634 1
13322 12641 12637 1
13323 12641 12638 1
13324 12642 12639 1
13325 12642 12640 1
13326 12647 12643 1
13327 12647 12644 1
13328 12648 12645 1
13329 12648 12646 1
13330 12653 12649 1
13331 12653 12650 1
13332 12654 12651 1
13333 12654 12652 1
13334 12659 12655 1
13335 12659 12656 1
13336 12660 12657 1
13337 12660 12658 1
13338 12665 12661 1
13339 12665 12662 1
13340 12666 12663 1
13341 12666 12664 1
13342 12671 12667 1
13343 12671 12668 1
13344 12672 12669 1
13345 12672 12670 1
13346 12677 12673 1
13347 12677 12674 1
13348 12678 12675 1
13349 12678 12676 1
13350 12683 12679 1
13351 12683 12680 1
13352 12684 12681 1
13353 12684 12682 1
13354 12689 12685 1
13355 12689 12686 1
13356 12690 12687 1
13357 12690 12688 1
13358 12695 12691 1
13359 12695 12692 1
13360 12696 12693 1
13361 12696 12694 1
13362 12701 12697 1
13363 12701 12698 1
13364 12702 12699 1
13365 12702 12700 1
13366 12707 12703 1
13367 12707 12704 1
13368 12708 12705 1
13369 12708 12706 1
13370 12713 12709 1
13371 12713 12710 1
13372 12714 12711 1
13373 12714 12712 1
13374 12719 12715 1
13375 12719 12716 1
13376 12720 12717 1
13377 12720 12718 1
13378 12725 12721 1
13379 12725 12722 1
13380 12726 12723 1
13381 12726 12724 1
13382 12731 12727 1
13383 12731 12728 1
13384 12732 12729 1
13385 12732 12730 1
13386 12737 12733 1
13387 12737 12734 1
13388 12738 12735 1
13389 12738 12736 1
13390 12743 12739 1
13391 12743 12740 1
13392 12744 12741 1
13393 12744 12742 1
13394 12749 12745 1
13395 12749 12746 1
13396 12750 12747 1
13397 12750 12748 1
13398 12755 12751 1
13399 12755 12752 1
13400 12756 12753 1
13401 12756 12754 1
13402 12761 12757 1
13403 12761 12758 1
13404 12762 12759 1
13405 12762 12760 1
13406 12767 12763 1
13407 12767 12764 1
13408 12768 12765 1
13409 12768 12766 1
13410 12773 12769 1
13411 12773 12770 1
13412 12774 12771 1
13413 12774 12772 1
13414 12779 12775 1
13415 12779 12776 1
13416 12780 12777 1
13417 12780 12778 1
13418 12785 12781 1
13419 12785 12782 1
13420 12786 12783 1
13421 12786 12784 1
13422 12791 12787 1
13423 12791 12788 1
13424 12792 12789 1
13425 12792 12790 1
13426 12797 12793 1
13427 12797 12794 1
13428 12798 12795 1
13429 12798 12796 1
13430 12803 12799 1
13431 12803 12800 1
13432 12804 12801 1
13433 12804 12802 1
13434 12809 12805 1
13435 12809 12806 1
13436 12810 12807 1
13437 12810 12808 1
13438 12815 12811 1
13439 12815 12812 1
13440 12816 12813 1
13441 12816 12814 1
13442 12821 12817 1
13443 12821 12818 1
13444 12822 12819 1
13445 12822 12820 1
13446 12827 12823 1
13447 12827 12824 1
13448 12828 12825 1
13449 12828 12826 1
13450 12833 12829 1
13451 12833 12830 1
13452 12834 12831 1
13453 12834 12832 1
13454 12839 12835 1
13455 12839 12836 1
13456 12840 12837 1
13457 12840 12838 1
13458 12845 12841 1
13459 12845 12842 1
13460 12846 12843 1
13461 12846 12844 1
13462 12851 12847 1
13463 12851 12848 1
13464 12852 12849 1
13465 12852 12850 1
13466 12857 12853 1
13467 12857 12854 1
13468 12858 12855 1
13469 12858 12856 1
13470 12863 12859 1
13471 12863 12860 1
13472 12864 12861 1
13473 12864 12862 1
13474 12869 12865 1
13475 12869 12866 1
13476 12870 12867 1
13477 12870 12868 1
13478 12875 12871 1
13479 12875 12872 1
13480 12876 12873 1
13481 12876 12874 1
13482 12881 12877 1
13483 12881 12878 1
13484 12882 12879 1
13485 12882 12880 1
13486 12887 12883 1
13487 12887 12884 1
13488 12888 12885 1
13489 12888 12886 1
13490 12893 12889 1
13491 12893 12890 1
13492 12894 12891 1
13493 12894 12892 1
13494 12899 12895 1
13495 12899 12896 1
13496 12900 12897 1
13497 12900 12898 1
13498 12905 12901 1
13499 12905 12902 1
13500 12906 12903 1
13501 12906 12904 1
13502 12911 12907 1
13503 12911 12908 1
13504 12912 12909 1
13505 12912 12910 1
13506 12917 12913 1
13507 12917 12914 1
13508 12918 12915 1
13509 12918 12916 1
13510 12923 12919 1
13511 12923 12920 1
13512 12924 12921 1
13513 12924 12922 1
13514 12929 12925 1
13515 12929 12926 1
13516 12930 12927 1
13517 12930 12928 1
13518 12935 12931 1
13519 12935 12932 1
13520 12936 12933 1
13521 12936 12934 1
13522 12941 12937 1
13523 12941 12938 1
13524 12942 12939 1
13525 12942 12940 1
13526 12947 12943 1
13527 12947 12944 1
13528 12948 12945 1
13529 12948 12946 1
13530 12953 12949 1
13531 12953 12950 1
13532 12954 12951 1
13533 12954 12952 1
13534 12959 12955 1
13535 12959 12956 1
13536 12960 12957 1
13537 12960 12958 1
13538 12965 12961 1
13539 12965 12962 1
13540 12966 12963 1
13541 12966 12964 1
13542 12971 12967 1
13543 12971 12968 1
13544 12972 12969 1
13545 12972 12970 1
13546 12977 12973 1
13547 12977 12974 1
13548 12978 12975 1
13549 12978 12976 1
13550 12983 12979 1
13551 12983 12980 1
13552 12984 12981 1
13553 12984 12982 1
13554 12989 12985 1
13555 12989 12986 1
13556 12990 12987 1
13557 12990 12988 1
13558 12995 12991 1
13559 12995 12992 1
13560 12996 12993 1
13561 12996 12994 1
13562 13001 12997 1
13563 13001 12998 1
13564 13002 12999 1
13565 13002 13000 1
13566 13007 13003 1
13567 13007 13004 1
13568 13008 13005 1
13569 13008 13006 1
13570 13013 13009 1
13571 13013 13010 1
13572 13014 13011 1
13573 13014 13012 1
13574 13019 13015 1
13575 13019 13016 1
13576 13020 13017 1
13577 13020 13018 1
13578 13025 13021 1
13579 13025 13022 1
13580 13026 13023 1
13581 13026 13024 1
13582 13031 13027 1
13583 13031 13028 1
13584 13032 13029 1
13585 13032 13030 1
13586 13037 13033 1
13587 13037 13034 1
13588 13038 13035 1
13589 13038 13036 1
13590 13043 13039 1
13591 13043 13040 1
13592 13044 13041 1
13593 13044 13042 1
13594 13049 13045 1
13595 13049 13046 1
13596 13050 13047 1
13597 13050 13048 1
13598 13055 13051 1
13599 13055 13052 1
13600 13056 13053 1
13601 13056 13054 1
13602 13061 13057 1
13603 13061 13058 1
13604 13062 13059 1
13605 13062 13060 1
13606 13067 13063 1
13607 13067 13064 1
13608 13068 13065 1
13609 13068 13066 1
13610 13073 13069 1
13611 13073 13070 1
13612 13074 13071 1
13613 13074 13072 1
13614 13079 13075 1
13615 13079 13076 1
13616 13080 13077 1
13617 13080 13078 1
13618 13085 13081 1
13619 13085 13082 1
13620 13086 13083 1
13621 13086 13084 1
13622 13091 13087 1
13623 13091 13088 1
13624 13092 13089 1
13625 13092 13090 1
13626 13097 13093 1
13627 13097 13094 1
13628 13098 13095 1
13629 13098 13096 1
13630 13103 13099 1
13631 13103 13100 1
13632 13104 13101 1
13633 13104 13102 1
13634 13109 13105 1
13635 13109 13106 1
13636 13110 13107 1
13637 13110 13108 1
13638 13115 13111 1
13639 13115 13112 1
13640 13116 13113 1
13641 13116 13114 1
13642 13121 13117 1
13643 13121 13118 1
13644 13122 13119 1
13645 13122 13120 1
13646 13127 13123 1
13647 13127 13124 1
13648 13128 13125 1
13649 13128 13126 1
13650 13133 13129 1
13651 13133 13130 1
13652 13134 13131 1
13653 13134 13132 1
13654 13139 13135 1
13655 13139 13136 1
13656 13140 13137 1
13657 13140 13138 1
13658 13145 13141 1
13659 13145 13142 1
13660 13146 13143 1
13661 13146 13144 1
13662 13151 13147 1
13663 13151 13148 1
13664 13152 13149 1
13665 13152 13150 1
13666 13157 13153 1
13667 13157 13154 1
13668 13158 13155 1
13669 13158 13156 1
13670 13163 13159 1
13671 13163 13160 1
13672 13164 13161 1
13673 13164 13162 1
13674 13169 13165 1
13675 13169 13166 1
13676 13170 13167 1
13677 13170 13168 1
13678 13175 13171 1
13679 13175 13172 1
13680 13176 13173 1
13681 13176 13174 1
13682 13181 13177 1
13683 13181 13178 1
13684 13182 13179 1
13685 13182 13180 1
13686 13187 13183 1
13687 13187 13184 1
13688 13188 13185 1
13689 13188 13186 1
13690 13193 13189 1
13691 13193 13190 1
13692 13194 13191 1
13693 13194 13192 1
13694 13199 13195 1
13695 13199 13196 1
13696 13200 13197 1
13697 13200 13198 1
13698 13205 13201 1
13699 13205 13202 1
13700 13206 13203 1
13701 13206 13204 1
13702 13211 13207 1
13703 13211 13208 1
13704 13212 13209 1
13705 13212 13210 1
13706 13217 13213 1
13707 13217 13214 1
13708 13218 13215 1
13709 13218 13216 1
13710 13223 13219 1
13711 13223 13220 1
13712 13224 13221 1
13713 13224 13222 1
13714 13229 13225 1
13715 13229 13226 1
13716 13230 13227 1
13717 13230 13228 1
13718 13235 13231 1
13719 13235 13232 1
13720 13236 13233 1
13721 13236 13234 1
13722 13241 13237 1
13723 13241 13238 1
13724 13242 13239 1
13725 13242 13240 1
13726 13247 13243 1
13727 13247 13244 1
13728 13248 13245 1
13729 13248 13246 1
13730 13253 13249 1
13731 13253 13250 1
13732 13254 13251 1
13733 13254 13252 1
13734 13259 13255 1
13735 13259 13256 1
13736 13260 13257 1
13737 13260 13258 1
13738 13265 13261 1
13739 13265 13262 1
13740 13266 13263 1
13741 13266 13264 1
13742 13271 13267 1
13743 13271 13268 1
13744 13272 13269 1
13745 13272 13270 1
13746 13277 13273 1
13747 13277 13274 1
13748 13278 13275 1
13749 13278 13276 1
13750 13283 13279 1
13751 13283 13280 1
13752 13284 13281 1
13753 13284 13282 1
13754 13289 13285 1
13755 13289 13286 1
13756 13290 13287 1
13757 13290 13288 1
13758 13295 13291 1
13759 13295 13292 1
13760 13296 13293 1
13761 13296 13294 1
13762 13301 13297 1
13763 13301 13298 1
13764 13302 13299 1
13765 13302 13300 1
13766 13307 13303 1
13767 13307 13304 1
13768 13308 13305 1
13769 13308 13306 1
13770 13313 13309 1
13771 13313 13310 1
13772 13314 13311 1
13773 13314 13312 1
13774 13319 13315 1
13775 13319 13316 1
13776 13320 13317 1
13777 13320 13318 1
13778 13325 13321 1
13779 13325 13322 1
13780 13326 13323 1
13781 13326 13324 1
13782 13331 13327 1
13783 13331 13328 1
13784 13332 13329 1
13785 13332 13330 1
13786 13337 13333 1
13787 13337 13334 1
13788 13338 13335 1
13789 13338 13336 1
13790 13343 13339 1
13791 13343 13340 1
13792 13344 13341 1
13793 13344 13342 1
13794 13349 13345 1
13795 13349 13346 1
13796 13350 13347 1
13797 13350 13348 1
13798 13355 13351 1
13799 13355 13352 1
13800 13356 13353 1
13801 13356 13354 1
13802 13361 13357 1
13803 13361 13358 1
13804 13362 13359 1
13805 13362 13360 1
13806 13367 13363 1
13807 13367 13364 1
13808 13368 13365 1
13809 13368 13366 1
13810 13373 13369 1
13811 13373 13370 1
13812 13374 13371 1
13813 13374 13372 1
13814 13379 13375 1
13815 13379 13376 1
13816 13380 13377 1
13817 13380 13378 1
13818 13385 13381 1
13819 13385 13382 1
13820 13386 13383 1
13821 13386 13384 1
13822 13391 13387 1
13823 13391 13388 1
13824 13392 13389 1
13825 13392 13390 1
13826 13397 13393 1
13827 13397 13394 1
13828 13398 13395 1
13829 13398 13396 1
13830 13403 13399 1
13831 13403 13400 1
13832 13404 13401 1
13833 13404 13402 1
13834 13409 13405 1
13835 13409 13406 1
13836 13410 13407 1
13837 13410 13408 1
13838 13415 13411 1
13839 13415 13412 1
13840 13416 13413 1
13841 13416 13414 1
13842 13421 13417 1
13843 13421 13418 1
13844 13422 13419 1
13845 13422 13420 1
13846 13427 13423 1
13847 13427 13424 1
13848 13428 13425 1
13849 13428 13426 1
13850 13433 13429 1
13851 13433 13430 1
13852 13434 13431 1
13853 13434 13432 1
13854 13439 13435 1
13855 13439 13436 1
13856 13440 13437 1
13857 13440 13438 1
13858 13445 13441 1
13859 13445 13442 1
13860 13446 13443 1
13861 13446 13444 1
13862 13451 13447 1
13863 13451 13448 1
13864 13452 13449 1
13865 13452 13450 1
13866 13457 13453 1
13867 13457 13454 1
13868 13458 13455 1
13869 13458 13456 1
13870 13463 13459 1
13871 13463 13460 1
13872 13464 13461 1
13873 13464 13462 1
13874 13469 13465 1
13875 13469 13466 1
13876 13470 13467 1
13877 13470 13468 1
13878 13475 13471 1
13879 13475 13472 1
13880 13476 13473 1
13881 13476 13474 1
13882 13481 13477 1
13883 13481 13478 1
13884 13482 13479 1
13885 13482 13480 1
13886 13487 13483 1
13887 13487 13484 1
13888 13488 13485 1
13889 13488 13486 1
13890 13493 13489 1
13891 13493 13490 1
13892 13494 13491 1
13893 13494 13492 1
13894 13499 13495 1
13895 13499 13496 1
13896 13500 13497 1
13897 13500 13498 1
13898 13505 13501 1
13899 13505 13502 1
13900 13506 13503 1
13901 13506 13504 1
13902 13511 13507 1
13903 13511 13508 1
13904 13512 13509 1
13905 13512 13510 1
13906 13517 13513 1
13907 13517 13514 1
13908 13518 13515 1
13909 13518 13516 1
13910 13523 13519 1
13911 13523 13520 1
13912 13524 13521 1
13913 13524 13522 1
13914 13529 13525 1
13915 13529 13526 1
13916 13530 13527 1
13917 13530 13528 1
13918 13535 13531 1
13919 13535 13532 1
13920 13536 13533 1
13921 13536 13534 1
13922 13541 13537 1
13923 13541 13538 1
13924 13542 13539 1
13925 13542 13540 1
13926 13547 13543 1
13927 13547 13544 1
13928 13548 13545 1
13929 13548 13546 1
13930 13553 13549 1
13931 13553 13550 1
13932 13554 13551 1
13933 13554 13552 1
13934 13559 13555 1
13935 13559 13556 1
13936 13560 13557 1
13937 13560 13558 1
13938 13565 13561 1
13939 13565 13562 1
13940 13566 13563 1
13941 13566 13564 1
13942 13571 13567 1
13943 13571 13568 1
13944 13572 13569 1
13945 13572 13570 1
13946 13577 13573 1
13947 13577 13574 1
13948 13578 13575 1
13949 13578 13576 1
13950 13583 13579 1
13951 13583 13580 1
13952 13584 13581 1
13953 13584 13582 1
13954 13589 13585 1
13955 13589 13586 1
13956 13590 13587 1
13957 13590 13588 1
13958 13595 13591 1
13959 13595 13592 1
13960 13596 13593 1
13961 13596 13594 1
13962 13601 13597 1
13963 13601 13598 1
13964 13602 13599 1
13965 13602 13600 1
13966 13607 13603 1
13967 13607 13604 1
13968 13608 13605 1
13969 13608 13606 1
13970 13613 13609 1
13971 13613 13610 1
13972 13614 13611 1
13973 13614 13612 1
13974 13619 13615 1
13975 13619 13616 1
13976 13620 13617 1
13977 13620 13618 1
13978 13625 13621 1
13979 13625 13622 1
13980 13626 13623 1
13981 13626 13624 1
13982 13631 13627 1
13983 13631 13628 1
13984 13632 13629 1
13985 13632 13630 1
13986 13637 13633 1
13987 13637 13634 1
13988 13638 13635 1
13989 13638 13636 1
13990 13643 13639 1
13991 13643 13640 1
13992 13644 13641 1
13993 13644 13642 1
13994 13649 13645 1
13995 13649 13646 1
13996 13650 13647 1
13997 13650 13648 1
13998 13655 13651 1
13999 13655 13652 1
14000 13656 13653 1
14001 13656 13654 1
14002 13661 13657 1
14003 13661 13658 1
14004 13662 13659 1
14005 13662 13660 1
14006 13667 13663 1
14007 13667 13664 1
14008 13668 13665 1
14009 13668 13666 1
14010 13673 13669 1
14011 13673 13670 1
14012 13674 13671 1
14013 13674 13672 1
14014 13679 13675 1
14015 13679 13676 1
14016 13680 13677 1
14017 13680 13678 1
14018 13685 13681 1
14019 13685 13682 1
14020 13686 13683 1
14021 13686 13684 1
14022 13691 13687 1
14023 13691 13688 1
14024 13692 13689 1
14025 13692 13690 1
14026 13697 13693 1
14027 13697 13694 1
14028 13698 13695 1
14029 13698 13696 1
14030 13703 13699 1
14031 13703 13700 1
14032 13704 13701 1
14033 13704 13702 1
14034 13709 13705 1
14035 13709 13706 1
14036 13710 13707 1
14037 13710 13708 1
14038 13715 13711 1
14039 13715 13712 1
14040 13716 13713 1
14041 13716 13714 1
14042 13721 13717 1
14043 13721 13718 1
14044 13722 13719 1
14045 13722 13720 1
14046 13727 13723 1
14047 13727 13724 1
14048 13728 13725 1
14049 13728 13726 1
14050 13733 13729 1
14051 13733 13730 1
14052 13734 13731 1
14053 13734 13732 1
14054 13739 13735 1
14055 13739 13736 1
14056 13740 13737 1
14057 13740 13738 1
14058 13745 13741 1
14059 13745 13742 1
14060 13746 13743 1
14061 13746 13744 1
14062 13751 13747 1
14063 13751 13748 1
14064 13752 13749 1
14065 13752 13750 1
14066 13757 13753 1
14067 13757 13754 1
14068 13758 13755 1
14069 13758 13756 1
14070 13763 13759 1
14071 13763 13760 1
14072 13764 13761 1
14073 13764 13762 1
14074 13769 13765 1
14075 13769 13766 1
14076 13770 13767 1
14077 13770 13768 1
14078 13775 13771 1
14079 13775 13772 1
14080 13776 13773 1
14081 13776 13774 1
14082 13781 13777 1
14083 13781 13778 1
14084 13782 13779 1
14085 13782 13780 1
14086 13787 13783 1
14087 13787 13784 1
14088 13788 13785 1
14089 13788 13786 1
14090 13793 13789 1
14091 13793 13790 1
14092 13794 13791 1
14093 13794 13792 1
14094 13799 13795 1
14095 13799 13796 1
14096 13800 13797 1
14097 13800 13798 1
14098 13805 13801 1
14099 13805 13802 1
14100 13806 13803 1
14101 13806 13804 1
14102 13811 13807 1
14103 13811 13808 1
14104 13812 13809 1
14105 13812 13810 1
14106 13817 13813 1
14107 13817 13814 1
14108 13818 13815 1
14109 13818 13816 1
14110 13823 13819 1
14111 13823 13820 1
14112 13824 13821 1
14113 13824 13822 1
14114 13829 13825 1
14115 13829 13826 1
14116 13830 13827 1
14117 13830 13828 1
14118 13835 13831 1
14119 13835 13832 1
14120 13836 13833 1
14121 13836 13834 1
14122 13841 13837 1
14123 13841 13838 1
14124 13842 13839 1
14125 13842 13840 1
14126 13847 13843 1
14127 13847 13844 1
14128 13848 13845 1
14129 13848 13846 1
14130 13853 13849 1
14131 13853 13850 1
14132 13854 13851 1
14133 13854 13852 1
14134 13859 13855 1
14135 13859 13856 1
14136 13860 13857 1
14137 13860 13858 1
14138 13865 13861 1
14139 13865 13862 1
14140 13866 13863 1
14141 13866 13864 1
14142 13871 13867 1
14143 13871 13868 1
14144 13872 13869 1
14145 13872 13870 1
14146 13877 13873 1
14147 13877 13874 1
14148 13878 13875 1
14149 13878 13876 1
14150 13883 13879 1
14151 13883 13880 1
14152 13884 13881 1
14153 13884 13882 1
14154 13889 13885 1
14155 13889 13886 1
14156 13890 13887 1
14157 13890 13888 1
14158 13895 13891 1
14159 13895 13892 1
14160 13896 13893 1
14161 13896 13894 1
14162 13901 13897 1
14163 13901 13898 1
14164 13902 13899 1
14165 13902 13900 1
14166 13907 13903 1
14167 13907 13904 1
14168 13908 13905 1
14169 13908 13906 1
14170 13913 13909 1
14171 13913 13910 1
14172 13914 13911 1
14173 13914 13912 1
14174 13919 13915 1
14175 13919 13916 1
14176 13920 13917 1
14177 13920 13918 1
14178 13925 13921 1
14179 13925 13922 1
14180 13926 13923 1
14181 13926 13924 1
14182 13931 13927 1
14183 13931 13928 1
14184 13932 13929 1
14185 13932 13930 1
14186 13937 13933 1
14187 13937 13934 1
14188 13938 13935 1
14189 13938 13936 1
14190 13943 13939 1
14191 13943 13940 1
14192 13944 13941 1
14193 13944 13942 1
14194 13949 13945 1
14195 13949 13946 1
14196 13950 13947 1
14197 13950 13948 1
14198 13955 13951 1
14199 13955 13952 1
14200 13956 13953 1
14201 13956 13954 1
14202 13961 13957 1
14203 13961 13958 1
14204 13962 13959 1
14205 13962 13960 1
14206 13967 13963 1
14207 13967 13964 1
14208 13968 13965 1
14209 13968 13966 1
14210 13973 13969 1
14211 13973 13970 1
14212 13974 13971 1
14213 13974 13972 1
14214 13979 13975 1
14215 13979 13976 1
14216 13980 13977 1
14217 13980 13978 1
14218 13985 13981 1
14219 13985 13982 1
14220 13986 13983 1
14221 13986 13984 1
14222 13991 13987 1
14223 13991 13988 1
14224 13992 13989 1
14225 13992 13990 1
14226 13997 13993 1
14227 13997 13994 1
14228 13998 13995 1
14229 13998 13996 1
14230 14003 13999 1
14231 14003 14000 1
14232 14004 14001 1
14233 14004 14002 1
14234 14009 14005 1
14235 14009 14006 1
14236 14010 14007 1
14237 14010 14008 1
14238 14015 14011 1
14239 14015 14012 1
14240 14016 14013 1
14241 14016 14014 1
14242 14021 14017 1
14243 14021 14018 1
14244 14022 14019 1
14245 14022 14020 1
14246 14027 14023 1
14247 14027 14024 1
14248 14028 14025 1
14249 14028 14026 1
14250 14033 14029 1
14251 14033 14030 1
14252 14034 14031 1
14253 14034 14032 1
14254 14039 14035 1
14255 14039 14036 1
14256 14040 14037 1
14257 14040 14038 1
14258 14045 14041 1
14259 14045 14042 1
14260 14046 14043 1
14261 14046 14044 1
14262 14051 14047 1
14263 14051 14048 1
14264 14052 14049 1
14265 14052 14050 1
14266 14057 14053 1
14267 14057 14054 1
14268 14058 14055 1
14269 14058 14056 1
14270 14063 14059 1
14271 14063 14060 1
14272 14064 14061 1
14273 14064 14062 1
14274 14069 14065 1
14275 14069 14066 1
14276 14070 14067 1
14277 14070 14068 1
14278 14075 14071 1
14279 14075 14072 1
14280 14076 14073 1
14281 14076 14074 1
14282 14081 14077 1
14283 14081 14078 1
14284 14082 14079 1
14285 14082 14080 1
14286 14087 14083 1
14287 14087 14084 1
14288 14088 14085 1
14289 14088 14086 1
14290 14093 14089 1
14291 14093 14090 1
14292 14094 14091 1
14293 14094 14092 1
14294 14099 14095 1
14295 14099 14096 1
14296 14100 14097 1
14297 14100 14098 1
14298 14105 14101 1
14299 14105 14102 1
14300 14106 14103 1
14301 14106 14104 1
14302 14111 14107 1
14303 14111 14108 1
14304 14112 14109 1
14305 14112 14110 1
14306 14117 14113 1
14307 14117 14114 1
14308 14118 14115 1
14309 14118 14116 1
14310 14123 14119 1
14311 14123 14120 1
14312 14124 14121 1
14313 14124 14122 1
14314 14129 14125 1
14315 14129 14126 1
14316 14130 14127 1
14317 14130 14128 1
14318 14135 14131 1
14319 14135 14132 1
14320 14136 14133 1
14321 14136 14134 1
14322 14141 14137 1
14323 14141 14138 1
14324 14142 14139 1
14325 14142 14140 1
14326 14147 14143 1
14327 14147 14144 1
14328 14148 14145 1
14329 14148 14146 1
14330 14153 14149 1
14331 14153 14150 1
14332 14154 14151 1
14333 14154 14152 1
14334 14159 14155 1
14335 14159 14156 1
14336 14160 14157 1
14337 14160 14158 1
14338 14165 14161 1
14339 14165 14162 1
14340 14166 14163 1
14341 14166 14164 1
14342 14171 14167 1
14343 14171 14168 1
14344 14172 14169 1
14345 14172 14170 1
14346 14177 14173 1
14347 14177 14174 1
14348 14178 14175 1
14349 14178 14176 1
14350 14183 14179 1
14351 14183 14180 1
14352 14184 14181 1
14353 14184 14182 1
14354 14189 14185 1
14355 14189 14186 1
14356 14190 14187 1
14357 14190 14188 1
14358 14195 14191 1
14359 14195 14192 1
14360 14196 14193 1
14361 14196 14194 1
14362 14201 14197 1
14363 14201 14198 1
14364 14202 14199 1
14365 14202 14200 1
14366 14207 14203 1
14367 14207 14204 1
14368 14208 14205 1
14369 14208 14206 1
14370 14213 14209 1
14371 14213 14210 1
14372 14214 14211 1
14373 14214 14212 1
14374 14219 14215 1
14375 14219 14216 1
14376 14220 14217 1
14377 14220 14218 1
14378 14225 14221 1
14379 14225 14222 1
14380 14226 14223 1
14381 14226 14224 1
14382 14231 14227 1
14383 14231 14228 1
14384 14232 14229 1
14385 14232 14230 1
14386 14237 14233 1
14387 14237 14234 1
14388 14238 14235 1
14389 14238 14236 1
14390 14243 14239 1
14391 14243 14240 1
14392 14244 14241 1
14393 14244 14242 1
14394 14249 14245 1
14395 14249 14246 1
14396 14250 14247 1
14397 14250 14248 1
14398 14255 14251 1
14399 14255 14252 1
14400 14256 14253 1
14401 14256 14254 1
14402 14261 14257 1
14403 14261 14258 1
14404 14262 14259 1
14405 14262 14260 1
14406 14267 14263 1
14407 14267 14264 1
14408 14268 14265 1
14409 14268 14266 1
14410 14273 14269 1
14411 14273 14270 1
14412 14274 14271 1
14413 14274 14272 1
14414 14279 14275 1
14415 14279 14276 1
14416 14280 14277 1
14417 14280 14278 1
14418 14285 14281 1
14419 14285 14282 1
14420 14286 14283 1
14421 14286 14284 1
14422 14291 14287 1
14423 14291 14288 1
14424 14292 14289 1
14425 14292 14290 1
14426 14297 14293 1
14427 14297 14294 1
14428 14298 14295 1
14429 14298 14296 1
14430 14303 14299 1
14431 14303 14300 1
14432 14304 14301 1
14433 14304 14302 1
14434 14309 14305 1
14435 14309 14306 1
14436 14310 14307 1
14437 14310 14308 1
14438 14315 14311 1
14439 14315 14312 1
14440 14316 14313 1
14441 14316 14314 1
14442 14321 14317 1
14443 14321 14318 1
14444 14322 14319 1
14445 14322 14320 1
14446 14327 14323 1
14447 14327 14324 1
14448 14328 14325 1
14449 14328 14326 1
14450 14333 14329 1
14451 14333 14330 1
14452 14334 14331 1
14453 14334 14332 1
14454 14339 14335 1
14455 14339 14336 1
14456 14340 14337 1
14457 14340 14338 1
14458 14345 14341 1
14459 14345 14342 1
14460 14346 14343 1
14461 14346 14344 1
14462 14351 14347 1
14463 14351 14348 1
14464 14352 14349 1
14465 14352 14350 1
14466 14357 14353 1
14467 14357 14354 1
14468 14358 14355 1
14469 14358 14356 1
14470 14363 14359 1
14471 14363 14360 1
14472 14364 14361 1
14473 14364 14362 1
14474 14369 14365 1
14475 14369 14366 1
14476 14370 14367 1
14477 14370 14368 1
14478 14375 14371 1
14479 14375 14372 1
14480 14376 14373 1
14481 14376 14374 1
14482 14381 14377 1
14483 14381 14378 1
14484 14382 14379 1
14485 14382 14380 1
14486 14387 14383 1
14487 14387 14384 1
14488 14388 14385 1
14489 14388 14386 1
14490 14393 14389 1
14491 14393 14390 1
14492 14394 14391 1
14493 14394 14392 1
14494 14399 14395 1
14495 14399 14396 1
14496 14400 14397 1
14497 14400 14398 1
14498 14405 14401 1
14499 14405 14402 1
14500 14406 14403 1
14501 14406 14404 1
14502 14411 14407 1
14503 14411 14408 1
14504 14412 14409 1
14505 14412 14410 1
14506 14417 14413 1
14507 14417 14414 1
14508 14418 14415 1
14509 14418 14416 1
14510 14423 14419 1
14511 14423 14420 1
14512 14424 14421 1
14513 14424 14422 1
14514 14429 14425 1
14515 14429 14426 1
14516 14430 14427 1
14517 14430 14428 1
14518 14435 14431 1
14519 14435 14432 1
14520 14436 14433 1
14521 14436 14434 1
14522 14441 14437 1
14523 14441 14438 1
14524 14442 14439 1
14525 14442 14440 1
14526 14447 14443 1
14527 14447 14444 1
14528 14448 14445 1
14529 14448 14446 1
14530 14453 14449 1
14531 14453 14450 1
14532 14454 14451 1
14533 14454 14452 1
14534 14459 14455 1
14535 14459 14456 1
14536 14460 14457 1
14537 14460 14458 1
14538 14465 14461 1
14539 14465 14462 1
14540 14466 14463 1
14541 14466 14464 1
14542 14471 14467 1
14543 14471 14468 1
14544 14472 14469 1
14545 14472 14470 1
14546 14477 14473 1
14547 14477 14474 1
14548 14478 14475 1
14549 14478 14476 1
14550 14483 14479 1
14551 14483 14480 1
14552 14484 14481 1
14553 14484 14482 1
14554 14489 14485 1
14555 14489 14486 1
14556 14490 14487 1
14557 14490 14488 1
14558 14495 14491 1
14559 14495 14492 1
14560 14496 14493 1
14561 14496 14494 1
14562 14501 14497 1
14563 14501 14498 1
14564 14502 14499 1
14565 14502 14500 1
14566 14507 14503 1
14567 14507 14504 1
14568 14508 14505 1
14569 14508 14506 1
14570 14513 14509 1
14571 14513 14510 1
14572 14514 14511 1
14573 14514 14512 1
14574 14519 14515 1
14575 14519 14516 1
14576 14520 14517 1
14577 14520 14518 1
14578 14525 14521 1
14579 14525 14522 1
14580 14526 14523 1
14581 14526 14524 1
14582 14531 14527 1
14583 14531 14528 1
14584 14532 14529 1
14585 14532 14530 1
14586 14537 14533 1
14587 14537 14534 1
14588 14538 14535 1
14589 14538 14536 1
14590 14543 14539 1
14591 14543 14540 1
14592 14544 14541 1
14593 14544 14542 1
14594 14549 14545 1
14595 14549 14546 1
14596 14550 14547 1
14597 14550 14548 1
14598 14555 14551 1
14599 14555 14552 1
14600 14556 14553 1
14601 14556 14554 1
14602 14561 14557 1
14603 14561 14558 1
14604 14562 14559 1
14605 14562 14560 1
14606 14567 14563 1
14607 14567 14564 1
14608 14568 14565 1
14609 14568 14566 1
14610 14573 14569 1
14611 14573 14570 1
14612 14574 14571 1
14613 14574 14572 1
14614 14579 14575 1
14615 14579 14576 1
14616 14580 14577 1
14617 14580 14578 1
14618 14585 14581 1
14619 14585 14582 1
14620 14586 14583 1
14621 14586 14584 1
14622 14591 14587 1
14623 14591 14588 1
14624 14592 14589 1
14625 14592 14590 1
14626 14597 14593 1
14627 14597 14594 1
14628 14598 14595 1
14629 14598 14596 1
14630 14603 14599 1
14631 14603 14600 1
14632 14604 14601 1
14633 14604 14602 1
14634 14609 14605 1
14635 14609 14606 1
14636 14610 14607 1
14637 14610 14608 1
14638 14615 14611 1
14639 14615 14612 1
14640 14616 14613 1
14641 14616 14614 1
14642 14621 14617 1
14643 14621 14618 1
14644 14622 14619 1
14645 14622 14620 1
14646 14627 14623 1
14647 14627 14624 1
14648 14628 14625 1
14649 14628 14626 1
14650 14633 14629 1
14651 14633 14630 1
14652 14634 14631 1
14653 14634 14632 1
14654 14639 14635 1
14655 14639 14636 1
14656 14640 14637 1
14657 14640 14638 1
14658 14645 14641 1
14659 14645 14642 1
14660 14646 14643 1
14661 14646 14644 1
14662 14651 14647 1
14663 14651 14648 1
14664 14652 14649 1
14665 14652 14650 1
14666 14657 14653 1
14667 14657 14654 1
14668 14658 14655 1
14669 14658 14656 1
14670 14663 14659 1
14671 14663 14660 1
14672 14664 14661 1
14673 14664 14662 1
14674 14669 14665 1
14675 14669 14666 1
14676 14670 14667 1
14677 14670 14668 1
14678 14675 14671 1
14679 14675 14672 1
14680 14676 14673 1
14681 14676 14674 1
14682 14681 14677 1
14683 14681 14678 1
14684 14682 14679 1
14685 14682 14680 1
14686 14687 14683 1
14687 14687 14684 1
14688 14688 14685 1
14689 14688 14686 1
14690 14693 14689 1
14691 14693 14690 1
14692 14694 14691 1
14693 14694 14692 1
14694 14699 14695 1
14695 14699 14696 1
14696 14700 14697 1
14697 14700 14698 1
14698 14705 14701 1
14699 14705 14702 1
14700 14706 14703 1
14701 14706 14704 1
14702 14711 14707 1
14703 14711 14708 1
14704 14712 14709 1
14705 14712 14710 1
14706 14717 14713 1
14707 14717 14714 1
14708 14718 14715 1
14709 14718 14716 1
14710 14723 14719 1
14711 14723 14720 1
14712 14724 14721 1
14713 14724 14722 1
14714 14729 14725 1
14715 14729 14726 1
14716 14730 14727 1
14717 14730 14728 1
14718 14735 14731 1
14719 14735 14732 1
14720 14736 14733 1
14721 14736 14734 1
14722 14741 14737 1
14723 14741 14738 1
14724 14742 14739 1
14725 14742 14740 1
14726 14747 14743 1
14727 14747 14744 1
14728 14748 14745 1
14729 14748 14746 1
14730 14753 14749 1
14731 14753 14750 1
14732 14754 14751 1
14733 14754 14752 1
14734 14759 14755 1
14735 14759 14756 1
14736 14760 14757 1
14737 14760 14758 1
14738 14765 14761 1
14739 14765 14762 1
14740 14766 14763 1
14741 14766 14764 1
14742 14771 14767 1
14743 14771 14768 1
14744 14772 14769 1
14745 14772 14770 1
14746 14777 14773 1
14747 14777 14774 1
14748 14778 14775 1
14749 14778 14776 1
14750 14783 14779 1
14751 14783 14780 1
14752 14784 14781 1
14753 14784 14782 1
14754 14789 14785 1
14755 14789 14786 1
14756 14790 14787 1
14757 14790 14788 1
14758 14795 14791 1
14759 14795 14792 1
14760 14796 14793 1
14761 14796 14794 1
14762 14801 14797 1
14763 14801 14798 1
14764 14802 14799 1
14765 14802 14800 1
14766 14807 14803 1
14767 14807 14804 1
14768 14808 14805 1
14769 14808 14806 1
14770 14813 14809 1
14771 14813 14810 1
14772 14814 14811 1
14773 14814 14812 1
14774 14819 14815 1
14775 14819 14816 1
14776 14820 14817 1
14777 14820 14818 1
14778 14825 14821 1
14779 14825 14822 1
14780 14826 14823 1
14781 14826 14824 1
14782 14831 14827 1
14783 14831 14828 1
14784 14832 14829 1
14785 14832 14830 1
14786 14837 14833 1
14787 14837 14834 1
14788 14838 14835 1
14789 14838 14836 1
14790 14843 14839 1
14791 14843 14840 1
14792 14844 14841 1
14793 14844 14842 1
14794 14849 14845 1
14795 14849 14846 1
14796 14850 14847 1
14797 14850 14848 1
14798 14855 14851 1
14799 14855 14852 1
14800 14856 14853 1
14801 14856 14854 1
14802 14861 14857 1
14803 14861 14858 1
14804 14862 14859 1
14805 14862 14860 1
14806 14867 14863 1
14807 14867 14864 1
14808 14868 14865 1
14809 14868 14866 1
14810 14873 14869 1
14811 14873 14870 1
14812 14874 14871 1
14813 14874 14872 1
14814 14879 14875 1
14815 14879 14876 1
14816 14880 14877 1
14817 14880 14878 1
14818 14885 14881 1
14819 14885 14882 1
14820 14886 14883 1
14821 14886 14884 1
14822 14891 14887 1
14823 14891 14888 1
14824 14892 14889 1
14825 14892 14890 1
14826 14897 14893 1
14827 14897 14894 1
14828 14898 14895 1
14829 14898 14896 1
14830 14903 14899 1
14831 14903 14900 1
14832 14904 14901 1
14833 14904 14902 1
14834 14909 14905 1
14835 14909 14906 1
14836 14910 14907 1
14837 14910 14908 1
14838 14915 14911 1
14839 14915 14912 1
14840 14916 14913 1
14841 14916 14914 1
14842 14921 14917 1
14843 14921 14918 1
14844 14922 14919 1
14845 14922 14920 1
14846 14927 14923 1
14847 14927 14924 1
14848 14928 14925 1
14849 14928 14926 1
14850 14933 14929 1
14851 14933 14930 1
14852 14934 14931 1
14853 14934 14932 1
14854 14939 14935 1
14855 14939 14936 1
14856 14940 14937 1
14857 14940 14938 1
@<TRIPOS>SUBSTRUCTURE
      1 PE                1 ****               0 ****  **** 
      2 PE                7 ****               0 ****  **** 
      3 PE               13 ****               0 ****  **** 
      4 PE               19 ****               0 ****  **** 
      5 PE               25 ****               0 ****  **** 
      6 PE               31 ****               0 ****  **** 
      7 PE               37 ****               0 ****  **** 
      8 PE               43 ****               0 ****  **** 
      9 PE               49 ****               0 ****  **** 
     10 PE               55 ****               0 ****  **** 
     11 PE               61 ****               0 ****  **** 
     12 PE               67 ****               0 ****  **** 
     13 PE               73 ****               0 ****  **** 
     14 PE               79 ****               0 ****  **** 
     15 PE               85 ****               0 ****  **** 
     16 PE               91 ****               0 ****  **** 
     17 PE               97 ****               0 ****  **** 
     18 PE              103 ****               0 ****  **** 
     19 PE              109 ****               0 ****  **** 
     20 PE              115 ****               0 ****  **** 
     21 PE              121 ****               0 ****  **** 
     22 PE              127 ****               0 ****  **** 
     23 PE              133 ****               0 ****  **** 
     24 PE              139 ****               0 ****  **** 
     25 PE              145 ****               0 ****  **** 
     26 PE              151 ****               0 ****  **** 
     27 PE              157 ****               0 ****  **** 
     28 PE              163 ****               0 ****  **** 
     29 PE              169 ****               0 ****  **** 
     30 PE              175 ****               0 ****  **** 
     31 PE              181 ****               0 ****  **** 
     32 PE              187 ****               0 ****  **** 
     33 PE              193 ****               0 ****  **** 
     34 PE              199 ****               0 ****  **** 
     35 PE              205 ****               0 ****  **** 
     36 PE              211 ****               0 ****  **** 
     37 PE              217 ****               0 ****  **** 
     38 PE              223 ****               0 ****  **** 
     39 PE              229 ****               0 ****  **** 
     40 PE              235 ****               0 ****  **** 
     41 PE              241 ****               0 ****  **** 
     42 PE              247 ****               0 ****  **** 
     43 PE              253 ****               0 ****  **** 
     44 PE              259 ****               0 ****  **** 
     45 PE              265 ****               0 ****  **** 
     46 PE              271 ****               0 ****  **** 
     47 PE              277 ****               0 ****  **** 
     48 PE              283 ****               0 ****  **** 
     49 PE              289 ****               0 ****  **** 
     50 PE              295 ****               0 ****  **** 
     51 PE              301 ****               0 ****  **** 
     52 PE              307 ****               0 ****  **** 
     53 PE              313 ****               0 ****  **** 
     54 PE              319 ****               0 ****  **** 
     55 PE              325 ****               0 ****  **** 
     56 PE              331 ****               0 ****  **** 
     57 PE              337 ****               0 ****  **** 
     58 PE              343 ****               0 ****  **** 
     59 PE              349 ****               0 ****  **** 
     60 PE              355 ****               0 ****  **** 
     61 PE              361 ****               0 ****  **** 
     62 PE              367 ****               0 ****  **** 
     63 PE              373 ****               0 ****  **** 
     64 PE              379 ****               0 ****  **** 
     65 PE              385 ****               0 ****  **** 
     66 PE              391 ****               0 ****  **** 
     67 PE              397 ****               0 ****  **** 
     68 PE              403 ****               0 ****  **** 
     69 PE              409 ****               0 ****  **** 
     70 PE              415 ****               0 ****  **** 
     71 PE              421 ****               0 ****  **** 
     72 PE              427 ****               0 ****  **** 
     73 PE              433 ****               0 ****  **** 
     74 PE              439 ****               0 ****  **** 
     75 PE              445 ****               0 ****  **** 
     76 PE              451 ****               0 ****  **** 
     77 PE              457 ****               0 ****  **** 
     78 PE              463 ****               0 ****  **** 
     79 PE              469 ****               0 ****  **** 
     80 PE              475 ****               0 ****  **** 
     81 PE              481 ****               0 ****  **** 
     82 PE              487 ****               0 ****  **** 
     83 PE              493 ****               0 ****  **** 
     84 PE              499 ****               0 ****  **** 
     85 PE              505 ****               0 ****  **** 
     86 PE              511 ****               0 ****  **** 
     87 PE              517 ****               0 ****  **** 
     88 PE              523 ****               0 ****  **** 
     89 PE              529 ****               0 ****  **** 
     90 PE              535 ****               0 ****  **** 
     91 PE              541 ****               0 ****  **** 
     92 PE              547 ****               0 ****  **** 
     93 PE              553 ****               0 ****  **** 
     94 PE              559 ****               0 ****  **** 
     95 PE              565 ****               0 ****  **** 
     96 PE              571 ****               0 ****  **** 
     97 PE              577 ****               0 ****  **** 
     98 PE              583 ****               0 ****  **** 
     99 PE              589 ****               0 ****  **** 
    100 PE              595 ****               0 ****  **** 
    101 PE              601 ****               0 ****  **** 
    102 PE              607 ****               0 ****  **** 
    103 PE              613 ****               0 ****  **** 
    104 PE              619 ****               0 ****  **** 
    105 PE              625 ****               0 ****  **** 
    106 PE              631 ****               0 ****  **** 
    107 PE              637 ****               0 ****  **** 
    108 PE              643 ****               0 ****  **** 
    109 PE              649 ****               0 ****  **** 
    110 PE              655 ****               0 ****  **** 
    111 PE              661 ****               0 ****  **** 
    112 PE              667 ****               0 ****  **** 
    113 PE              673 ****               0 ****  **** 
    114 PE              679 ****               0 ****  **** 
    115 PE              685 ****               0 ****  **** 
    116 PE              691 ****               0 ****  **** 
    117 PE              697 ****               0 ****  **** 
    118 PE              703 ****               0 ****  **** 
    119 PE              709 ****               0 ****  **** 
    120 PE              715 ****               0 ****  **** 
    121 PE              721 ****               0 ****  **** 
    122 PE              727 ****               0 ****  **** 
    123 PE              733 ****               0 ****  **** 
    124 PE              739 ****               0 ****  **** 
    125 PE              745 ****               0 ****  **** 
    126 PE              751 ****               0 ****  **** 
    127 PE              757 ****               0 ****  **** 
    128 PE              763 ****               0 ****  **** 
    129 PE              769 ****               0 ****  **** 
    130 PE              775 ****               0 ****  **** 
    131 PE              781 ****               0 ****  **** 
    132 PE              787 ****               0 ****  **** 
    133 PE              793 ****               0 ****  **** 
    134 PE              799 ****               0 ****  **** 
    135 PE              805 ****               0 ****  **** 
    136 PE              811 ****               0 ****  **** 
    137 PE              817 ****               0 ****  **** 
    138 PE              823 ****               0 ****  **** 
    139 PE              829 ****               0 ****  **** 
    140 PE              835 ****               0 ****  **** 
    141 PE              841 ****               0 ****  **** 
    142 PE              847 ****               0 ****  **** 
    143 PE              853 ****               0 ****  **** 
    144 PE              859 ****               0 ****  **** 
    145 PE              865 ****               0 ****  **** 
    146 PE              871 ****               0 ****  **** 
    147 PE              877 ****               0 ****  **** 
    148 PE              883 ****               0 ****  **** 
    149 PE              889 ****               0 ****  **** 
    150 PE              895 ****               0 ****  **** 
    151 PE              901 ****               0 ****  **** 
    152 PE              907 ****               0 ****  **** 
    153 PE              913 ****               0 ****  **** 
    154 PE              919 ****               0 ****  **** 
    155 PE              925 ****               0 ****  **** 
    156 PE              931 ****               0 ****  **** 
    157 PE              937 ****               0 ****  **** 
    158 PE              943 ****               0 ****  **** 
    159 PE              949 ****               0 ****  **** 
    160 PE              955 ****               0 ****  **** 
    161 PE              961 ****               0 ****  **** 
    162 PE              967 ****               0 ****  **** 
    163 PE              973 ****               0 ****  **** 
    164 PE              979 ****               0 ****  **** 
    165 PE              985 ****               0 ****  **** 
    166 PE              991 ****               0 ****  **** 
    167 PE              997 ****               0 ****  **** 
    168 PE             1003 ****               0 ****  **** 
    169 PE             1009 ****               0 ****  **** 
    170 PE             1015 ****               0 ****  **** 
    171 PE             1021 ****               0 ****  **** 
    172 PE             1027 ****               0 ****  **** 
    173 PE             1033 ****               0 ****  **** 
    174 PE             1039 ****               0 ****  **** 
    175 PE             1045 ****               0 ****  **** 
    176 PE             1051 ****               0 ****  **** 
    177 PE             1057 ****               0 ****  **** 
    178 PE             1063 ****               0 ****  **** 
    179 PE             1069 ****               0 ****  **** 
    180 PE             1075 ****               0 ****  **** 
    181 PE             1081 ****               0 ****  **** 
    182 PE             1087 ****               0 ****  **** 
    183 PE             1093 ****               0 ****  **** 
    184 PE             1099 ****               0 ****  **** 
    185 PE             1105 ****               0 ****  **** 
    186 PE             1111 ****               0 ****  **** 
    187 PE             1117 ****               0 ****  **** 
    188 PE             1123 ****               0 ****  **** 
    189 PE             1129 ****               0 ****  **** 
    190 PE             1135 ****               0 ****  **** 
    191 PE             1141 ****               0 ****  **** 
    192 PE             1147 ****               0 ****  **** 
    193 PE             1153 ****               0 ****  **** 
    194 PE             1159 ****               0 ****  **** 
    195 PE             1165 ****               0 ****  **** 
    196 PE             1171 ****               0 ****  **** 
    197 PE             1177 ****               0 ****  **** 
    198 PE             1183 ****               0 ****  **** 
    199 PE             1189 ****               0 ****  **** 
    200 PE             1195 ****               0 ****  **** 
    201 PE             1201 ****               0 ****  **** 
    202 PE             1207 ****               0 ****  **** 
    203 PE             1213 ****               0 ****  **** 
    204 PE             1219 ****               0 ****  **** 
    205 PE             1225 ****               0 ****  **** 
    206 PE             1231 ****               0 ****  **** 
    207 PE             1237 ****               0 ****  **** 
    208 PE             1243 ****               0 ****  **** 
    209 PE             1249 ****               0 ****  **** 
    210 PE             1255 ****               0 ****  **** 
    211 PE             1261 ****               0 ****  **** 
    212 PE             1267 ****               0 ****  **** 
    213 PE             1273 ****               0 ****  **** 
    214 PE             1279 ****               0 ****  **** 
    215 PE             1285 ****               0 ****  **** 
    216 PE             1291 ****               0 ****  **** 
    217 PE             1297 ****               0 ****  **** 
    218 PE             1303 ****               0 ****  **** 
    219 PE             1309 ****               0 ****  **** 
    220 PE             1315 ****               0 ****  **** 
    221 PE             1321 ****               0 ****  **** 
    222 PE             1327 ****               0 ****  **** 
    223 PE             1333 ****               0 ****  **** 
    224 PE             1339 ****               0 ****  **** 
    225 PE             1345 ****               0 ****  **** 
    226 PE             1351 ****               0 ****  **** 
    227 PE             1357 ****               0 ****  **** 
    228 PE             1363 ****               0 ****  **** 
    229 PE             1369 ****               0 ****  **** 
    230 PE             1375 ****               0 ****  **** 
    231 PE             1381 ****               0 ****  **** 
    232 PE             1387 ****               0 ****  **** 
    233 PE             1393 ****               0 ****  **** 
    234 PE             1399 ****               0 ****  **** 
    235 PE             1405 ****               0 ****  **** 
    236 PE             1411 ****               0 ****  **** 
    237 PE             1417 ****               0 ****  **** 
    238 PE             1423 ****               0 ****  **** 
    239 PE             1429 ****               0 ****  **** 
    240 PE             1435 ****               0 ****  **** 
    241 PE             1441 ****               0 ****  **** 
    242 PE             1447 ****               0 ****  **** 
    243 PE             1453 ****               0 ****  **** 
    244 PE             1459 ****               0 ****  **** 
    245 PE             1465 ****               0 ****  **** 
    246 PE             1471 ****               0 ****  **** 
    247 PE             1477 ****               0 ****  **** 
    248 PE             1483 ****               0 ****  **** 
    249 PE             1489 ****               0 ****  **** 
    250 PE             1495 ****               0 ****  **** 
    251 PE             1501 ****               0 ****  **** 
    252 PE             1507 ****               0 ****  **** 
    253 PE             1513 ****               0 ****  **** 
    254 PE             1519 ****               0 ****  **** 
    255 PE             1525 ****               0 ****  **** 
    256 PE             1531 ****               0 ****  **** 
    257 PE             1537 ****               0 ****  **** 
    258 PE             1543 ****               0 ****  **** 
    259 PE             1549 ****               0 ****  **** 
    260 PE             1555 ****               0 ****  **** 
    261 PE             1561 ****               0 ****  **** 
    262 PE             1567 ****               0 ****  **** 
    263 PE             1573 ****               0 ****  **** 
    264 PE             1579 ****               0 ****  **** 
    265 PE             1585 ****               0 ****  **** 
    266 PE             1591 ****               0 ****  **** 
    267 PE             1597 ****               0 ****  **** 
    268 PE             1603 ****               0 ****  **** 
    269 PE             1609 ****               0 ****  **** 
    270 PE             1615 ****               0 ****  **** 
    271 PE             1621 ****               0 ****  **** 
    272 PE             1627 ****               0 ****  **** 
    273 PE             1633 ****               0 ****  **** 
    274 PE             1639 ****               0 ****  **** 
    275 PE             1645 ****               0 ****  **** 
    276 PE             1651 ****               0 ****  **** 
    277 PE             1657 ****               0 ****  **** 
    278 PE             1663 ****               0 ****  **** 
    279 PE             1669 ****               0 ****  **** 
    280 PE             1675 ****               0 ****  **** 
    281 PE             1681 ****               0 ****  **** 
    282 PE             1687 ****               0 ****  **** 
    283 PE             1693 ****               0 ****  **** 
    284 PE             1699 ****               0 ****  **** 
    285 PE             1705 ****               0 ****  **** 
    286 PE             1711 ****               0 ****  **** 
    287 PE             1717 ****               0 ****  **** 
    288 PE             1723 ****               0 ****  **** 
    289 PE             1729 ****               0 ****  **** 
    290 PE             1735 ****               0 ****  **** 
    291 PE             1741 ****               0 ****  **** 
    292 PE             1747 ****               0 ****  **** 
    293 PE             1753 ****               0 ****  **** 
    294 PE             1759 ****               0 ****  **** 
    295 PE             1765 ****               0 ****  **** 
    296 PE             1771 ****               0 ****  **** 
    297 PE             1777 ****               0 ****  **** 
    298 PE             1783 ****               0 ****  **** 
    299 PE             1789 ****               0 ****  **** 
    300 PE             1795 ****               0 ****  **** 
    301 PE             1801 ****               0 ****  **** 
    302 PE             1807 ****               0 ****  **** 
    303 PE             1813 ****               0 ****  **** 
    304 PE             1819 ****               0 ****  **** 
    305 PE             1825 ****               0 ****  **** 
    306 PE             1831 ****               0 ****  **** 
    307 PE             1837 ****               0 ****  **** 
    308 PE             1843 ****               0 ****  **** 
    309 PE             1849 ****               0 ****  **** 
    310 PE             1855 ****               0 ****  **** 
    311 PE             1861 ****               0 ****  **** 
    312 PE             1867 ****               0 ****  **** 
    313 PE             1873 ****               0 ****  **** 
    314 PE             1879 ****               0 ****  **** 
    315 PE             1885 ****               0 ****  **** 
    316 PE             1891 ****               0 ****  **** 
    317 PE             1897 ****               0 ****  **** 
    318 PE             1903 ****               0 ****  **** 
    319 PE             1909 ****               0 ****  **** 
    320 PE             1915 ****               0 ****  **** 
    321 PE             1921 ****               0 ****  **** 
    322 PE             1927 ****               0 ****  **** 
    323 PE             1933 ****               0 ****  **** 
    324 PE             1939 ****               0 ****  **** 
    325 PE             1945 ****               0 ****  **** 
    326 PE             1951 ****               0 ****  **** 
    327 PE             1957 ****               0 ****  **** 
    328 PE             1963 ****               0 ****  **** 
    329 PE             1969 ****               0 ****  **** 
    330 PE             1975 ****               0 ****  **** 
    331 PE             1981 ****               0 ****  **** 
    332 PE             1987 ****               0 ****  **** 
    333 PE             1993 ****               0 ****  **** 
    334 PE             1999 ****               0 ****  **** 
    335 PE             2005 ****               0 ****  **** 
    336 PE             2011 ****               0 ****  **** 
    337 PE             2017 ****               0 ****  **** 
    338 PE             2023 ****               0 ****  **** 
    339 PE             2029 ****               0 ****  **** 
    340 PE             2035 ****               0 ****  **** 
    341 PE             2041 ****               0 ****  **** 
    342 PE             2047 ****               0 ****  **** 
    343 PE             2053 ****               0 ****  **** 
    344 PE             2059 ****               0 ****  **** 
    345 PE             2065 ****               0 ****  **** 
    346 PE             2071 ****               0 ****  **** 
    347 PE             2077 ****               0 ****  **** 
    348 PE             2083 ****               0 ****  **** 
    349 PE             2089 ****               0 ****  **** 
    350 PE             2095 ****               0 ****  **** 
    351 PE             2101 ****               0 ****  **** 
    352 PE             2107 ****               0 ****  **** 
    353 PE             2113 ****               0 ****  **** 
    354 PE             2119 ****               0 ****  **** 
    355 PE             2125 ****               0 ****  **** 
    356 PE             2131 ****               0 ****  **** 
    357 PE             2137 ****               0 ****  **** 
    358 PE             2143 ****               0 ****  **** 
    359 PE             2149 ****               0 ****  **** 
    360 PE             2155 ****               0 ****  **** 
    361 PE             2161 ****               0 ****  **** 
    362 PE             2167 ****               0 ****  **** 
    363 PE             2173 ****               0 ****  **** 
    364 PE             2179 ****               0 ****  **** 
    365 PE             2185 ****               0 ****  **** 
    366 PE             2191 ****               0 ****  **** 
    367 PE             2197 ****               0 ****  **** 
    368 PE             2203 ****               0 ****  **** 
    369 PE             2209 ****               0 ****  **** 
    370 PE             2215 ****               0 ****  **** 
    371 PE             2221 ****               0 ****  **** 
    372 PE             2227 ****               0 ****  **** 
    373 PE             2233 ****               0 ****  **** 
    374 PE             2239 ****               0 ****  **** 
    375 PE             2245 ****               0 ****  **** 
    376 PE             2251 ****               0 ****  **** 
    377 PE             2257 ****               0 ****  **** 
    378 PE             2263 ****               0 ****  **** 
    379 PE             2269 ****               0 ****  **** 
    380 PE             2275 ****               0 ****  **** 
    381 PE             2281 ****               0 ****  **** 
    382 PE             2287 ****               0 ****  **** 
    383 PE             2293 ****               0 ****  **** 
    384 PE             2299 ****               0 ****  **** 
    385 PE             2305 ****               0 ****  **** 
    386 PE             2311 ****               0 ****  **** 
    387 PE             2317 ****               0 ****  **** 
    388 PE             2323 ****               0 ****  **** 
    389 PE             2329 ****               0 ****  **** 
    390 PE             2335 ****               0 ****  **** 
    391 PE             2341 ****               0 ****  **** 
    392 PE             2347 ****               0 ****  **** 
    393 PE             2353 ****               0 ****  **** 
    394 PE             2359 ****               0 ****  **** 
    395 PE             2365 ****               0 ****  **** 
    396 PE             2371 ****               0 ****  **** 
    397 PE             2377 ****               0 ****  **** 
    398 PE             2383 ****               0 ****  **** 
    399 PE             2389 ****               0 ****  **** 
    400 PE             2395 ****               0 ****  **** 
    401 PE             2401 ****               0 ****  **** 
    402 PE             2407 ****               0 ****  **** 
    403 PE             2413 ****               0 ****  **** 
    404 PE             2419 ****               0 ****  **** 
    405 PE             2425 ****               0 ****  **** 
    406 PE             2431 ****               0 ****  **** 
    407 PE             2437 ****               0 ****  **** 
    408 PE             2443 ****               0 ****  **** 
    409 PE             2449 ****               0 ****  **** 
    410 PE             2455 ****               0 ****  **** 
    411 PE             2461 ****               0 ****  **** 
    412 PE             2467 ****               0 ****  **** 
    413 PE             2473 ****               0 ****  **** 
    414 PE             2479 ****               0 ****  **** 
    415 PE             2485 ****               0 ****  **** 
    416 PE             2491 ****               0 ****  **** 
    417 PE             2497 ****               0 ****  **** 
    418 PE             2503 ****               0 ****  **** 
    419 PE             2509 ****               0 ****  **** 
    420 PE             2515 ****               0 ****  **** 
    421 PE             2521 ****               0 ****  **** 
    422 PE             2527 ****               0 ****  **** 
    423 PE             2533 ****               0 ****  **** 
    424 PE             2539 ****               0 ****  **** 
    425 PE             2545 ****               0 ****  **** 
    426 PE             2551 ****               0 ****  **** 
    427 PE             2557 ****               0 ****  **** 
    428 PE             2563 ****               0 ****  **** 
    429 PE             2569 ****               0 ****  **** 
    430 PE             2575 ****               0 ****  **** 
    431 PE             2581 ****               0 ****  **** 
    432 PE             2587 ****               0 ****  **** 
    433 PE             2593 ****               0 ****  **** 
    434 PE             2599 ****               0 ****  **** 
    435 PE             2605 ****               0 ****  **** 
    436 PE             2611 ****               0 ****  **** 
    437 PE             2617 ****               0 ****  **** 
    438 PE             2623 ****               0 ****  **** 
    439 PE             2629 ****               0 ****  **** 
    440 PE             2635 ****               0 ****  **** 
    441 PE             2641 ****               0 ****  **** 
    442 PE             2647 ****               0 ****  **** 
    443 PE             2653 ****               0 ****  **** 
    444 PE             2659 ****               0 ****  **** 
    445 PE             2665 ****               0 ****  **** 
    446 PE             2671 ****               0 ****  **** 
    447 PE             2677 ****               0 ****  **** 
    448 PE             2683 ****               0 ****  **** 
    449 PE             2689 ****               0 ****  **** 
    450 PE             2695 ****               0 ****  **** 
    451 PE             2701 ****               0 ****  **** 
    452 PE             2707 ****               0 ****  **** 
    453 PE             2713 ****               0 ****  **** 
    454 PE             2719 ****               0 ****  **** 
    455 PE             2725 ****               0 ****  **** 
    456 PE             2731 ****               0 ****  **** 
    457 PE             2737 ****               0 ****  **** 
    458 PE             2743 ****               0 ****  **** 
    459 PE             2749 ****               0 ****  **** 
    460 PE             2755 ****               0 ****  **** 
    461 PE             2761 ****               0 ****  **** 
    462 PE             2767 ****               0 ****  **** 
    463 PE             2773 ****               0 ****  **** 
    464 PE             2779 ****               0 ****  **** 
    465 PE             2785 ****               0 ****  **** 
    466 PE             2791 ****               0 ****  **** 
    467 PE             2797 ****               0 ****  **** 
    468 PE             2803 ****               0 ****  **** 
    469 PE             2809 ****               0 ****  **** 
    470 PE             2815 ****               0 ****  **** 
    471 PE             2821 ****               0 ****  **** 
    472 PE             2827 ****               0 ****  **** 
    473 PE             2833 ****               0 ****  **** 
    474 PE             2839 ****               0 ****  **** 
    475 PE             2845 ****               0 ****  **** 
    476 PE             2851 ****               0 ****  **** 
    477 PE             2857 ****               0 ****  **** 
    478 PE             2863 ****               0 ****  **** 
    479 PE             2869 ****               0 ****  **** 
    480 PE             2875 ****               0 ****  **** 
    481 PE             2881 ****               0 ****  **** 
    482 PE             2887 ****               0 ****  **** 
    483 PE             2893 ****               0 ****  **** 
    484 PE             2899 ****               0 ****  **** 
    485 PE             2905 ****               0 ****  **** 
    486 PE             2911 ****               0 ****  **** 
    487 PE             2917 ****               0 ****  **** 
    488 PE             2923 ****               0 ****  **** 
    489 PE             2929 ****               0 ****  **** 
    490 PE             2935 ****               0 ****  **** 
    491 PE             2941 ****               0 ****  **** 
    492 PE             2947 ****               0 ****  **** 
    493 PE             2953 ****               0 ****  **** 
    494 PE             2959 ****               0 ****  **** 
    495 PE             2965 ****               0 ****  **** 
    496 PE             2971 ****               0 ****  **** 
    497 PE             2977 ****               0 ****  **** 
    498 PE             2983 ****               0 ****  **** 
    499 PE             2989 ****               0 ****  **** 
    500 PE             2995 ****               0 ****  **** 
    501 PE             3001 ****               0 ****  **** 
    502 PE             3007 ****               0 ****  **** 
    503 PE             3013 ****               0 ****  **** 
    504 PE             3019 ****               0 ****  **** 
    505 PE             3025 ****               0 ****  **** 
    506 PE             3031 ****               0 ****  **** 
    507 PE             3037 ****               0 ****  **** 
    508 PE             3043 ****               0 ****  **** 
    509 PE             3049 ****               0 ****  **** 
    510 PE             3055 ****               0 ****  **** 
    511 PE             3061 ****               0 ****  **** 
    512 PE             3067 ****               0 ****  **** 
    513 PE             3073 ****               0 ****  **** 
    514 PE             3079 ****               0 ****  **** 
    515 PE             3085 ****               0 ****  **** 
    516 PE             3091 ****               0 ****  **** 
    517 PE             3097 ****               0 ****  **** 
    518 PE             3103 ****               0 ****  **** 
    519 PE             3109 ****               0 ****  **** 
    520 PE             3115 ****               0 ****  **** 
    521 PE             3121 ****               0 ****  **** 
    522 PE             3127 ****               0 ****  **** 
    523 PE             3133 ****               0 ****  **** 
    524 PE             3139 ****               0 ****  **** 
    525 PE             3145 ****               0 ****  **** 
    526 PE             3151 ****               0 ****  **** 
    527 PE             3157 ****               0 ****  **** 
    528 PE             3163 ****               0 ****  **** 
    529 PE             3169 ****               0 ****  **** 
    530 PE             3175 ****               0 ****  **** 
    531 PE             3181 ****               0 ****  **** 
    532 PE             3187 ****               0 ****  **** 
    533 PE             3193 ****               0 ****  **** 
    534 PE             3199 ****               0 ****  **** 
    535 PE             3205 ****               0 ****  **** 
    536 PE             3211 ****               0 ****  **** 
    537 PE             3217 ****               0 ****  **** 
    538 PE             3223 ****               0 ****  **** 
    539 PE             3229 ****               0 ****  **** 
    540 PE             3235 ****               0 ****  **** 
    541 PE             3241 ****               0 ****  **** 
    542 PE             3247 ****               0 ****  **** 
    543 PE             3253 ****               0 ****  **** 
    544 PE             3259 ****               0 ****  **** 
    545 PE             3265 ****               0 ****  **** 
    546 PE             3271 ****               0 ****  **** 
    547 PE             3277 ****               0 ****  **** 
    548 PE             3283 ****               0 ****  **** 
    549 PE             3289 ****               0 ****  **** 
    550 PE             3295 ****               0 ****  **** 
    551 PE             3301 ****               0 ****  **** 
    552 PE             3307 ****               0 ****  **** 
    553 PE             3313 ****               0 ****  **** 
    554 PE             3319 ****               0 ****  **** 
    555 PE             3325 ****               0 ****  **** 
    556 PE             3331 ****               0 ****  **** 
    557 PE             3337 ****               0 ****  **** 
    558 PE             3343 ****               0 ****  **** 
    559 PE             3349 ****               0 ****  **** 
    560 PE             3355 ****               0 ****  **** 
    561 PE             3361 ****               0 ****  **** 
    562 PE             3367 ****               0 ****  **** 
    563 PE             3373 ****               0 ****  **** 
    564 PE             3379 ****               0 ****  **** 
    565 PE             3385 ****               0 ****  **** 
    566 PE             3391 ****               0 ****  **** 
    567 PE             3397 ****               0 ****  **** 
    568 PE             3403 ****               0 ****  **** 
    569 PE             3409 ****               0 ****  **** 
    570 PE             3415 ****               0 ****  **** 
    571 PE             3421 ****               0 ****  **** 
    572 PE             3427 ****               0 ****  **** 
    573 PE             3433 ****               0 ****  **** 
    574 PE             3439 ****               0 ****  **** 
    575 PE             3445 ****               0 ****  **** 
    576 PE             3451 ****               0 ****  **** 
    577 PE             3457 ****               0 ****  **** 
    578 PE             3463 ****               0 ****  **** 
    579 PE             3469 ****               0 ****  **** 
    580 PE             3475 ****               0 ****  **** 
    581 PE             3481 ****               0 ****  **** 
    582 PE             3487 ****               0 ****  **** 
    583 PE             3493 ****               0 ****  **** 
    584 PE             3499 ****               0 ****  **** 
    585 PE             3505 ****               0 ****  **** 
    586 PE             3511 ****               0 ****  **** 
    587 PE             3517 ****               0 ****  **** 
    588 PE             3523 ****               0 ****  **** 
    589 PE             3529 ****               0 ****  **** 
    590 PE             3535 ****               0 ****  **** 
    591 PE             3541 ****               0 ****  **** 
    592 PE             3547 ****               0 ****  **** 
    593 PE             3553 ****               0 ****  **** 
    594 PE             3559 ****               0 ****  **** 
    595 PE             3565 ****               0 ****  **** 
    596 PE             3571 ****               0 ****  **** 
    597 PE             3577 ****               0 ****  **** 
    598 PE             3583 ****               0 ****  **** 
    599 PE             3589 ****               0 ****  **** 
    600 PE             3595 ****               0 ****  **** 
    601 PE             3601 ****               0 ****  **** 
    602 PE             3607 ****               0 ****  **** 
    603 PE             3613 ****               0 ****  **** 
    604 PE             3619 ****               0 ****  **** 
    605 PE             3625 ****               0 ****  **** 
    606 PE             3631 ****               0 ****  **** 
    607 PE             3637 ****               0 ****  **** 
    608 PE             3643 ****               0 ****  **** 
    609 PE             3649 ****               0 ****  **** 
    610 PE             3655 ****               0 ****  **** 
    611 PE             3661 ****               0 ****  **** 
    612 PE             3667 ****               0 ****  **** 
    613 PE             3673 ****               0 ****  **** 
    614 PE             3679 ****               0 ****  **** 
    615 PE             3685 ****               0 ****  **** 
    616 PE             3691 ****               0 ****  **** 
    617 PE             3697 ****               0 ****  **** 
    618 PE             3703 ****               0 ****  **** 
    619 PE             3709 ****               0 ****  **** 
    620 PE             3715 ****               0 ****  **** 
    621 PE             3721 ****               0 ****  **** 
    622 PE             3727 ****               0 ****  **** 
    623 PE             3733 ****               0 ****  **** 
    624 PE             3739 ****               0 ****  **** 
    625 PE             3745 ****               0 ****  **** 
    626 PE             3751 ****               0 ****  **** 
    627 PE             3757 ****               0 ****  **** 
    628 PE             3763 ****               0 ****  **** 
    629 PE             3769 ****               0 ****  **** 
    630 PE             3775 ****               0 ****  **** 
    631 PE             3781 ****               0 ****  **** 
    632 PE             3787 ****               0 ****  **** 
    633 PE             3793 ****               0 ****  **** 
    634 PE             3799 ****               0 ****  **** 
    635 PE             3805 ****               0 ****  **** 
    636 PE             3811 ****               0 ****  **** 
    637 PE             3817 ****               0 ****  **** 
    638 PE             3823 ****               0 ****  **** 
    639 PE             3829 ****               0 ****  **** 
    640 PE             3835 ****               0 ****  **** 
    641 PE             3841 ****               0 ****  **** 
    642 PE             3847 ****               0 ****  **** 
    643 PE             3853 ****               0 ****  **** 
    644 PE             3859 ****               0 ****  **** 
    645 PE             3865 ****               0 ****  **** 
    646 PE             3871 ****               0 ****  **** 
    647 PE             3877 ****               0 ****  **** 
    648 PE             3883 ****               0 ****  **** 
    649 PE             3889 ****               0 ****  **** 
    650 PE             3895 ****               0 ****  **** 
    651 PE             3901 ****               0 ****  **** 
    652 PE             3907 ****               0 ****  **** 
    653 PE             3913 ****               0 ****  **** 
    654 PE             3919 ****               0 ****  **** 
    655 PE             3925 ****               0 ****  **** 
    656 PE             3931 ****               0 ****  **** 
    657 PE             3937 ****               0 ****  **** 
    658 PE             3943 ****               0 ****  **** 
    659 PE             3949 ****               0 ****  **** 
    660 PE             3955 ****               0 ****  **** 
    661 PE             3961 ****               0 ****  **** 
    662 PE             3967 ****               0 ****  **** 
    663 PE             3973 ****               0 ****  **** 
    664 PE             3979 ****               0 ****  **** 
    665 PE             3985 ****               0 ****  **** 
    666 PE             3991 ****               0 ****  **** 
    667 PE             3997 ****               0 ****  **** 
    668 PE             4003 ****               0 ****  **** 
    669 PE             4009 ****               0 ****  **** 
    670 PE             4015 ****               0 ****  **** 
    671 PE             4021 ****               0 ****  **** 
    672 PE             4027 ****               0 ****  **** 
    673 PE             4033 ****               0 ****  **** 
    674 PE             4039 ****               0 ****  **** 
    675 PE             4045 ****               0 ****  **** 
    676 PE             4051 ****               0 ****  **** 
    677 PE             4057 ****               0 ****  **** 
    678 PE             4063 ****               0 ****  **** 
    679 PE             4069 ****               0 ****  **** 
    680 PE             4075 ****               0 ****  **** 
    681 PE             4081 ****               0 ****  **** 
    682 PE             4087 ****               0 ****  **** 
    683 PE             4093 ****               0 ****  **** 
    684 PE             4099 ****               0 ****  **** 
    685 PE             4105 ****               0 ****  **** 
    686 PE             4111 ****               0 ****  **** 
    687 PE             4117 ****               0 ****  **** 
    688 PE             4123 ****               0 ****  **** 
    689 PE             4129 ****               0 ****  **** 
    690 PE             4135 ****               0 ****  **** 
    691 PE             4141 ****               0 ****  **** 
    692 PE             4147 ****               0 ****  **** 
    693 PE             4153 ****               0 ****  **** 
    694 PE             4159 ****               0 ****  **** 
    695 PE             4165 ****               0 ****  **** 
    696 PE             4171 ****               0 ****  **** 
    697 PE             4177 ****               0 ****  **** 
    698 PE             4183 ****               0 ****  **** 
    699 PE             4189 ****               0 ****  **** 
    700 PE             4195 ****               0 ****  **** 
    701 PE             4201 ****               0 ****  **** 
    702 PE             4207 ****               0 ****  **** 
    703 PE             4213 ****               0 ****  **** 
    704 PE             4219 ****               0 ****  **** 
    705 PE             4225 ****               0 ****  **** 
    706 PE             4231 ****               0 ****  **** 
    707 PE             4237 ****               0 ****  **** 
    708 PE             4243 ****               0 ****  **** 
    709 PE             4249 ****               0 ****  **** 
    710 PE             4255 ****               0 ****  **** 
    711 PE             4261 ****               0 ****  **** 
    712 PE             4267 ****               0 ****  **** 
    713 PE             4273 ****               0 ****  **** 
    714 PE             4279 ****               0 ****  **** 
    715 PE             4285 ****               0 ****  **** 
    716 PE             4291 ****               0 ****  **** 
    717 PE             4297 ****               0 ****  **** 
    718 PE             4303 ****               0 ****  **** 
    719 PE             4309 ****               0 ****  **** 
    720 PE             4315 ****               0 ****  **** 
    721 PE             4321 ****               0 ****  **** 
    722 PE             4327 ****               0 ****  **** 
    723 PE             4333 ****               0 ****  **** 
    724 PE             4339 ****               0 ****  **** 
    725 PE             4345 ****               0 ****  **** 
    726 PE             4351 ****               0 ****  **** 
    727 PE             4357 ****               0 ****  **** 
    728 PE             4363 ****               0 ****  **** 
    729 PE             4369 ****               0 ****  **** 
    730 PE             4375 ****               0 ****  **** 
    731 PE             4381 ****               0 ****  **** 
    732 PE             4387 ****               0 ****  **** 
    733 PE             4393 ****               0 ****  **** 
    734 PE             4399 ****               0 ****  **** 
    735 PE             4405 ****               0 ****  **** 
    736 PE             4411 ****               0 ****  **** 
    737 PE             4417 ****               0 ****  **** 
    738 PE             4423 ****               0 ****  **** 
    739 PE             4429 ****               0 ****  **** 
    740 PE             4435 ****               0 ****  **** 
    741 PE             4441 ****               0 ****  **** 
    742 PE             4447 ****               0 ****  **** 
    743 PE             4453 ****               0 ****  **** 
    744 PE             4459 ****               0 ****  **** 
    745 PE             4465 ****               0 ****  **** 
    746 PE             4471 ****               0 ****  **** 
    747 PE             4477 ****               0 ****  **** 
    748 PE             4483 ****               0 ****  **** 
    749 PE             4489 ****               0 ****  **** 
    750 PE             4495 ****               0 ****  **** 
    751 PE             4501 ****               0 ****  **** 
    752 PE             4507 ****               0 ****  **** 
    753 PE             4513 ****               0 ****  **** 
    754 PE             4519 ****               0 ****  **** 
    755 PE             4525 ****               0 ****  **** 
    756 PE             4531 ****               0 ****  **** 
    757 PE             4537 ****               0 ****  **** 
    758 PE             4543 ****               0 ****  **** 
    759 PE             4549 ****               0 ****  **** 
    760 PE             4555 ****               0 ****  **** 
    761 PE             4561 ****               0 ****  **** 
    762 PE             4567 ****               0 ****  **** 
    763 PE             4573 ****               0 ****  **** 
    764 PE             4579 ****               0 ****  **** 
    765 PE             4585 ****               0 ****  **** 
    766 PE             4591 ****               0 ****  **** 
    767 PE             4597 ****               0 ****  **** 
    768 PE             4603 ****               0 ****  **** 
    769 PE             4609 ****               0 ****  **** 
    770 PE             4615 ****               0 ****  **** 
    771 PE             4621 ****               0 ****  **** 
    772 PE             4627 ****               0 ****  **** 
    773 PE             4633 ****               0 ****  **** 
    774 PE             4639 ****               0 ****  **** 
    775 PE             4645 ****               0 ****  **** 
    776 PE             4651 ****               0 ****  **** 
    777 PE             4657 ****               0 ****  **** 
    778 PE             4663 ****               0 ****  **** 
    779 PE             4669 ****               0 ****  **** 
    780 PE             4675 ****               0 ****  **** 
    781 PE             4681 ****               0 ****  **** 
    782 PE             4687 ****               0 ****  **** 
    783 PE             4693 ****               0 ****  **** 
    784 PE             4699 ****               0 ****  **** 
    785 PE             4705 ****               0 ****  **** 
    786 PE             4711 ****               0 ****  **** 
    787 PE             4717 ****               0 ****  **** 
    788 PE             4723 ****               0 ****  **** 
    789 PE             4729 ****               0 ****  **** 
    790 PE             4735 ****               0 ****  **** 
    791 PE             4741 ****               0 ****  **** 
    792 PE             4747 ****               0 ****  **** 
    793 PE             4753 ****               0 ****  **** 
    794 PE             4759 ****               0 ****  **** 
    795 PE             4765 ****               0 ****  **** 
    796 PE             4771 ****               0 ****  **** 
    797 PE             4777 ****               0 ****  **** 
    798 PE             4783 ****               0 ****  **** 
    799 PE             4789 ****               0 ****  **** 
    800 PE             4795 ****               0 ****  **** 
    801 PE             4801 ****               0 ****  **** 
    802 PE             4807 ****               0 ****  **** 
    803 PE             4813 ****               0 ****  **** 
    804 PE             4819 ****               0 ****  **** 
    805 PE             4825 ****               0 ****  **** 
    806 PE             4831 ****               0 ****  **** 
    807 PE             4837 ****               0 ****  **** 
    808 PE             4843 ****               0 ****  **** 
    809 PE             4849 ****               0 ****  **** 
    810 PE             4855 ****               0 ****  **** 
    811 PE             4861 ****               0 ****  **** 
    812 PE             4867 ****               0 ****  **** 
    813 PE             4873 ****               0 ****  **** 
    814 PE             4879 ****               0 ****  **** 
    815 PE             4885 ****               0 ****  **** 
    816 PE             4891 ****               0 ****  **** 
    817 PE             4897 ****               0 ****  **** 
    818 PE             4903 ****               0 ****  **** 
    819 PE             4909 ****               0 ****  **** 
    820 PE             4915 ****               0 ****  **** 
    821 PE             4921 ****               0 ****  **** 
    822 PE             4927 ****               0 ****  **** 
    823 PE             4933 ****               0 ****  **** 
    824 PE             4939 ****               0 ****  **** 
    825 PE             4945 ****               0 ****  **** 
    826 PE             4951 ****               0 ****  **** 
    827 PE             4957 ****               0 ****  **** 
    828 PE             4963 ****               0 ****  **** 
    829 PE             4969 ****               0 ****  **** 
    830 PE             4975 ****               0 ****  **** 
    831 PE             4981 ****               0 ****  **** 
    832 PE             4987 ****               0 ****  **** 
    833 PE             4993 ****               0 ****  **** 
    834 PE             4999 ****               0 ****  **** 
    835 PE             5005 ****               0 ****  **** 
    836 PE             5011 ****               0 ****  **** 
    837 PE             5017 ****               0 ****  **** 
    838 PE             5023 ****               0 ****  **** 
    839 PE             5029 ****               0 ****  **** 
    840 PE             5035 ****               0 ****  **** 
    841 PE             5041 ****               0 ****  **** 
    842 PE             5047 ****               0 ****  **** 
    843 PE             5053 ****               0 ****  **** 
    844 PE             5059 ****               0 ****  **** 
    845 PE             5065 ****               0 ****  **** 
    846 PE             5071 ****               0 ****  **** 
    847 PE             5077 ****               0 ****  **** 
    848 PE             5083 ****               0 ****  **** 
    849 PE             5089 ****               0 ****  **** 
    850 PE             5095 ****               0 ****  **** 
    851 PE             5101 ****               0 ****  **** 
    852 PE             5107 ****               0 ****  **** 
    853 PE             5113 ****               0 ****  **** 
    854 PE             5119 ****               0 ****  **** 
    855 PE             5125 ****               0 ****  **** 
    856 PE             5131 ****               0 ****  **** 
    857 PE             5137 ****               0 ****  **** 
    858 PE             5143 ****               0 ****  **** 
    859 PE             5149 ****               0 ****  **** 
    860 PE             5155 ****               0 ****  **** 
    861 PE             5161 ****               0 ****  **** 
    862 PE             5167 ****               0 ****  **** 
    863 PE             5173 ****               0 ****  **** 
    864 PE             5179 ****               0 ****  **** 
    865 PE             5185 ****               0 ****  **** 
    866 PE             5191 ****               0 ****  **** 
    867 PE             5197 ****               0 ****  **** 
    868 PE             5203 ****               0 ****  **** 
    869 PE             5209 ****               0 ****  **** 
    870 PE             5215 ****               0 ****  **** 
    871 PE             5221 ****               0 ****  **** 
    872 PE             5227 ****               0 ****  **** 
    873 PE             5233 ****               0 ****  **** 
    874 PE             5239 ****               0 ****  **** 
    875 PE             5245 ****               0 ****  **** 
    876 PE             5251 ****               0 ****  **** 
    877 PE             5257 ****               0 ****  **** 
    878 PE             5263 ****               0 ****  **** 
    879 PE             5269 ****               0 ****  **** 
    880 PE             5275 ****               0 ****  **** 
    881 PE             5281 ****               0 ****  **** 
    882 PE             5287 ****               0 ****  **** 
    883 PE             5293 ****               0 ****  **** 
    884 PE             5299 ****               0 ****  **** 
    885 PE             5305 ****               0 ****  **** 
    886 PE             5311 ****               0 ****  **** 
    887 PE             5317 ****               0 ****  **** 
    888 PE             5323 ****               0 ****  **** 
    889 PE             5329 ****               0 ****  **** 
    890 PE             5335 ****               0 ****  **** 
    891 PE             5341 ****               0 ****  **** 
    892 PE             5347 ****               0 ****  **** 
    893 PE             5353 ****               0 ****  **** 
    894 PE             5359 ****               0 ****  **** 
    895 PE             5365 ****               0 ****  **** 
    896 PE             5371 ****               0 ****  **** 
    897 PE             5377 ****               0 ****  **** 
    898 PE             5383 ****               0 ****  **** 
    899 PE             5389 ****               0 ****  **** 
    900 PE             5395 ****               0 ****  **** 
    901 PE             5401 ****               0 ****  **** 
    902 PE             5407 ****               0 ****  **** 
    903 PE             5413 ****               0 ****  **** 
    904 PE             5419 ****               0 ****  **** 
    905 PE             5425 ****               0 ****  **** 
    906 PE             5431 ****               0 ****  **** 
    907 PE             5437 ****               0 ****  **** 
    908 PE             5443 ****               0 ****  **** 
    909 PE             5449 ****               0 ****  **** 
    910 PE             5455 ****               0 ****  **** 
    911 PE             5461 ****               0 ****  **** 
    912 PE             5467 ****               0 ****  **** 
    913 PE             5473 ****               0 ****  **** 
    914 PE             5479 ****               0 ****  **** 
    915 PE             5485 ****               0 ****  **** 
    916 PE             5491 ****               0 ****  **** 
    917 PE             5497 ****               0 ****  **** 
    918 PE             5503 ****               0 ****  **** 
    919 PE             5509 ****               0 ****  **** 
    920 PE             5515 ****               0 ****  **** 
    921 PE             5521 ****               0 ****  **** 
    922 PE             5527 ****               0 ****  **** 
    923 PE             5533 ****               0 ****  **** 
    924 PE             5539 ****               0 ****  **** 
    925 PE             5545 ****               0 ****  **** 
    926 PE             5551 ****               0 ****  **** 
    927 PE             5557 ****               0 ****  **** 
    928 PE             5563 ****               0 ****  **** 
    929 PE             5569 ****               0 ****  **** 
    930 PE             5575 ****               0 ****  **** 
    931 PE             5581 ****               0 ****  **** 
    932 PE             5587 ****               0 ****  **** 
    933 PE             5593 ****               0 ****  **** 
    934 PE             5599 ****               0 ****  **** 
    935 PE             5605 ****               0 ****  **** 
    936 PE             5611 ****               0 ****  **** 
    937 PE             5617 ****               0 ****  **** 
    938 PE             5623 ****               0 ****  **** 
    939 PE             5629 ****               0 ****  **** 
    940 PE             5635 ****               0 ****  **** 
    941 PE             5641 ****               0 ****  **** 
    942 PE             5647 ****               0 ****  **** 
    943 PE             5653 ****               0 ****  **** 
    944 PE             5659 ****               0 ****  **** 
    945 PE             5665 ****               0 ****  **** 
    946 PE             5671 ****               0 ****  **** 
    947 PE             5677 ****               0 ****  **** 
    948 PE             5683 ****               0 ****  **** 
    949 PE             5689 ****               0 ****  **** 
    950 PE             5695 ****               0 ****  **** 
    951 PE             5701 ****               0 ****  **** 
    952 PE             5707 ****               0 ****  **** 
    953 PE             5713 ****               0 ****  **** 
    954 PE             5719 ****               0 ****  **** 
    955 PE             5725 ****               0 ****  **** 
    956 PE             5731 ****               0 ****  **** 
    957 PE             5737 ****               0 ****  **** 
    958 PE             5743 ****               0 ****  **** 
    959 PE             5749 ****               0 ****  **** 
    960 PE             5755 ****               0 ****  **** 
    961 PE             5761 ****               0 ****  **** 
    962 PE             5767 ****               0 ****  **** 
    963 PE             5773 ****               0 ****  **** 
    964 PE             5779 ****               0 ****  **** 
    965 PE             5785 ****               0 ****  **** 
    966 PE             5791 ****               0 ****  **** 
    967 PE             5797 ****               0 ****  **** 
    968 PE             5803 ****               0 ****  **** 
    969 PE             5809 ****               0 ****  **** 
    970 PE             5815 ****               0 ****  **** 
    971 PE             5821 ****               0 ****  **** 
    972 PE             5827 ****               0 ****  **** 
    973 PE             5833 ****               0 ****  **** 
    974 PE             5839 ****               0 ****  **** 
    975 PE             5845 ****               0 ****  **** 
    976 PE             5851 ****               0 ****  **** 
    977 PE             5857 ****               0 ****  **** 
    978 PE             5863 ****               0 ****  **** 
    979 PE             5869 ****               0 ****  **** 
    980 PE             5875 ****               0 ****  **** 
    981 PE             5881 ****               0 ****  **** 
    982 PE             5887 ****               0 ****  **** 
    983 PE             5893 ****               0 ****  **** 
    984 PE             5899 ****               0 ****  **** 
    985 PE             5905 ****               0 ****  **** 
    986 PE             5911 ****               0 ****  **** 
    987 PE             5917 ****               0 ****  **** 
    988 PE             5923 ****               0 ****  **** 
    989 PE             5929 ****               0 ****  **** 
    990 PE             5935 ****               0 ****  **** 
    991 PE             5941 ****               0 ****  **** 
    992 PE             5947 ****               0 ****  **** 
    993 PE             5953 ****               0 ****  **** 
    994 PE             5959 ****               0 ****  **** 
    995 PE             5965 ****               0 ****  **** 
    996 PE             5971 ****               0 ****  **** 
    997 PE             5977 ****               0 ****  **** 
    998 PE             5983 ****               0 ****  **** 
    999 PE             5989 ****               0 ****  **** 
   1000 PE             5995 ****               0 ****  **** 
   1001 PE             6001 ****               0 ****  **** 
   1002 PE             6007 ****               0 ****  **** 
   1003 PE             6013 ****               0 ****  **** 
   1004 PE             6019 ****               0 ****  **** 
   1005 PE             6025 ****               0 ****  **** 
   1006 PE             6031 ****               0 ****  **** 
   1007 PE             6037 ****               0 ****  **** 
   1008 PE             6043 ****               0 ****  **** 
   1009 PE             6049 ****               0 ****  **** 
   1010 PE             6055 ****               0 ****  **** 
   1011 PE             6061 ****               0 ****  **** 
   1012 PE             6067 ****               0 ****  **** 
   1013 PE             6073 ****               0 ****  **** 
   1014 PE             6079 ****               0 ****  **** 
   1015 PE             6085 ****               0 ****  **** 
   1016 PE             6091 ****               0 ****  **** 
   1017 PE             6097 ****               0 ****  **** 
   1018 PE             6103 ****               0 ****  **** 
   1019 PE             6109 ****               0 ****  **** 
   1020 PE             6115 ****               0 ****  **** 
   1021 PE             6121 ****               0 ****  **** 
   1022 PE             6127 ****               0 ****  **** 
   1023 PE             6133 ****               0 ****  **** 
   1024 PE             6139 ****               0 ****  **** 
   1025 PE             6145 ****               0 ****  **** 
   1026 PE             6151 ****               0 ****  **** 
   1027 PE             6157 ****               0 ****  **** 
   1028 PE             6163 ****               0 ****  **** 
   1029 PE             6169 ****               0 ****  **** 
   1030 PE             6175 ****               0 ****  **** 
   1031 PE             6181 ****               0 ****  **** 
   1032 PE             6187 ****               0 ****  **** 
   1033 PE             6193 ****               0 ****  **** 
   1034 PE             6199 ****               0 ****  **** 
   1035 PE             6205 ****               0 ****  **** 
   1036 PE             6211 ****               0 ****  **** 
   1037 PE             6217 ****               0 ****  **** 
   1038 PE             6223 ****               0 ****  **** 
   1039 PE             6229 ****               0 ****  **** 
   1040 PE             6235 ****               0 ****  **** 
   1041 PE             6241 ****               0 ****  **** 
   1042 PE             6247 ****               0 ****  **** 
   1043 PE             6253 ****               0 ****  **** 
   1044 PE             6259 ****               0 ****  **** 
   1045 PE             6265 ****               0 ****  **** 
   1046 PE             6271 ****               0 ****  **** 
   1047 PE             6277 ****               0 ****  **** 
   1048 PE             6283 ****               0 ****  **** 
   1049 PE             6289 ****               0 ****  **** 
   1050 PE             6295 ****               0 ****  **** 
   1051 PE             6301 ****               0 ****  **** 
   1052 PE             6307 ****               0 ****  **** 
   1053 PE             6313 ****               0 ****  **** 
   1054 PE             6319 ****               0 ****  **** 
   1055 PE             6325 ****               0 ****  **** 
   1056 PE             6331 ****               0 ****  **** 
   1057 PE             6337 ****               0 ****  **** 
   1058 PE             6343 ****               0 ****  **** 
   1059 PE             6349 ****               0 ****  **** 
   1060 PE             6355 ****               0 ****  **** 
   1061 PE             6361 ****               0 ****  **** 
   1062 PE             6367 ****               0 ****  **** 
   1063 PE             6373 ****               0 ****  **** 
   1064 PE             6379 ****               0 ****  **** 
   1065 PE             6385 ****               0 ****  **** 
   1066 PE             6391 ****               0 ****  **** 
   1067 PE             6397 ****               0 ****  **** 
   1068 PE             6403 ****               0 ****  **** 
   1069 PE             6409 ****               0 ****  **** 
   1070 PE             6415 ****               0 ****  **** 
   1071 PE             6421 ****               0 ****  **** 
   1072 PE             6427 ****               0 ****  **** 
   1073 PE             6433 ****               0 ****  **** 
   1074 PE             6439 ****               0 ****  **** 
   1075 PE             6445 ****               0 ****  **** 
   1076 PE             6451 ****               0 ****  **** 
   1077 PE             6457 ****               0 ****  **** 
   1078 PE             6463 ****               0 ****  **** 
   1079 PE             6469 ****               0 ****  **** 
   1080 PE             6475 ****               0 ****  **** 
   1081 PE             6481 ****               0 ****  **** 
   1082 PE             6487 ****               0 ****  **** 
   1083 PE             6493 ****               0 ****  **** 
   1084 PE             6499 ****               0 ****  **** 
   1085 PE             6505 ****               0 ****  **** 
   1086 PE             6511 ****               0 ****  **** 
   1087 PE             6517 ****               0 ****  **** 
   1088 PE             6523 ****               0 ****  **** 
   1089 PE             6529 ****               0 ****  **** 
   1090 PE             6535 ****               0 ****  **** 
   1091 PE             6541 ****               0 ****  **** 
   1092 PE             6547 ****               0 ****  **** 
   1093 PE             6553 ****               0 ****  **** 
   1094 PE             6559 ****               0 ****  **** 
   1095 PE             6565 ****               0 ****  **** 
   1096 PE             6571 ****               0 ****  **** 
   1097 PE             6577 ****               0 ****  **** 
   1098 PE             6583 ****               0 ****  **** 
   1099 PE             6589 ****               0 ****  **** 
   1100 PE             6595 ****               0 ****  **** 
   1101 PE             6601 ****               0 ****  **** 
   1102 PE             6607 ****               0 ****  **** 
   1103 PE             6613 ****               0 ****  **** 
   1104 PE             6619 ****               0 ****  **** 
   1105 PE             6625 ****               0 ****  **** 
   1106 PE             6631 ****               0 ****  **** 
   1107 PE             6637 ****               0 ****  **** 
   1108 PE             6643 ****               0 ****  **** 
   1109 PE             6649 ****               0 ****  **** 
   1110 PE             6655 ****               0 ****  **** 
   1111 PE             6661 ****               0 ****  **** 
   1112 PE             6667 ****               0 ****  **** 
   1113 PE             6673 ****               0 ****  **** 
   1114 PE             6679 ****               0 ****  **** 
   1115 PE             6685 ****               0 ****  **** 
   1116 PE             6691 ****               0 ****  **** 
   1117 PE             6697 ****               0 ****  **** 
   1118 PE             6703 ****               0 ****  **** 
   1119 PE             6709 ****               0 ****  **** 
   1120 PE             6715 ****               0 ****  **** 
   1121 PE             6721 ****               0 ****  **** 
   1122 PE             6727 ****               0 ****  **** 
   1123 PE             6733 ****               0 ****  **** 
   1124 PE             6739 ****               0 ****  **** 
   1125 PE             6745 ****               0 ****  **** 
   1126 PE             6751 ****               0 ****  **** 
   1127 PE             6757 ****               0 ****  **** 
   1128 PE             6763 ****               0 ****  **** 
   1129 PE             6769 ****               0 ****  **** 
   1130 PE             6775 ****               0 ****  **** 
   1131 PE             6781 ****               0 ****  **** 
   1132 PE             6787 ****               0 ****  **** 
   1133 PE             6793 ****               0 ****  **** 
   1134 PE             6799 ****               0 ****  **** 
   1135 PE             6805 ****               0 ****  **** 
   1136 PE             6811 ****               0 ****  **** 
   1137 PE             6817 ****               0 ****  **** 
   1138 PE             6823 ****               0 ****  **** 
   1139 PE             6829 ****               0 ****  **** 
   1140 PE             6835 ****               0 ****  **** 
   1141 PE             6841 ****               0 ****  **** 
   1142 PE             6847 ****               0 ****  **** 
   1143 PE             6853 ****               0 ****  **** 
   1144 PE             6859 ****               0 ****  **** 
   1145 PE             6865 ****               0 ****  **** 
   1146 PE             6871 ****               0 ****  **** 
   1147 PE             6877 ****               0 ****  **** 
   1148 PE             6883 ****               0 ****  **** 
   1149 PE             6889 ****               0 ****  **** 
   1150 PE             6895 ****               0 ****  **** 
   1151 PE             6901 ****               0 ****  **** 
   1152 PE             6907 ****               0 ****  **** 
   1153 PE             6913 ****               0 ****  **** 
   1154 PE             6919 ****               0 ****  **** 
   1155 PE             6925 ****               0 ****  **** 
   1156 PE             6931 ****               0 ****  **** 
   1157 PE             6937 ****               0 ****  **** 
   1158 PE             6943 ****               0 ****  **** 
   1159 PE             6949 ****               0 ****  **** 
   1160 PE             6955 ****               0 ****  **** 
   1161 PE             6961 ****               0 ****  **** 
   1162 PE             6967 ****               0 ****  **** 
   1163 PE             6973 ****               0 ****  **** 
   1164 PE             6979 ****               0 ****  **** 
   1165 PE             6985 ****               0 ****  **** 
   1166 PE             6991 ****               0 ****  **** 
   1167 PE             6997 ****               0 ****  **** 
   1168 PE             7003 ****               0 ****  **** 
   1169 PE             7009 ****               0 ****  **** 
   1170 PE             7015 ****               0 ****  **** 
   1171 PE             7021 ****               0 ****  **** 
   1172 PE             7027 ****               0 ****  **** 
   1173 PE             7033 ****               0 ****  **** 
   1174 PE             7039 ****               0 ****  **** 
   1175 PE             7045 ****               0 ****  **** 
   1176 PE             7051 ****               0 ****  **** 
   1177 PE             7057 ****               0 ****  **** 
   1178 PE             7063 ****               0 ****  **** 
   1179 PE             7069 ****               0 ****  **** 
   1180 PE             7075 ****               0 ****  **** 
   1181 PE             7081 ****               0 ****  **** 
   1182 PE             7087 ****               0 ****  **** 
   1183 PE             7093 ****               0 ****  **** 
   1184 PE             7099 ****               0 ****  **** 
   1185 PE             7105 ****               0 ****  **** 
   1186 PE             7111 ****               0 ****  **** 
   1187 PE             7117 ****               0 ****  **** 
   1188 PE             7123 ****               0 ****  **** 
   1189 PE             7129 ****               0 ****  **** 
   1190 PE             7135 ****               0 ****  **** 
   1191 PE             7141 ****               0 ****  **** 
   1192 PE             7147 ****               0 ****  **** 
   1193 PE             7153 ****               0 ****  **** 
   1194 PE             7159 ****               0 ****  **** 
   1195 PE             7165 ****               0 ****  **** 
   1196 PE             7171 ****               0 ****  **** 
   1197 PE             7177 ****               0 ****  **** 
   1198 PE             7183 ****               0 ****  **** 
   1199 PE             7189 ****               0 ****  **** 
   1200 PE             7195 ****               0 ****  **** 
   1201 PE             7201 ****               0 ****  **** 
   1202 PE             7207 ****               0 ****  **** 
   1203 PE             7213 ****               0 ****  **** 
   1204 PE             7219 ****               0 ****  **** 
   1205 PE             7225 ****               0 ****  **** 
   1206 PE             7231 ****               0 ****  **** 
   1207 PE             7237 ****               0 ****  **** 
   1208 PE             7243 ****               0 ****  **** 
   1209 PE             7249 ****               0 ****  **** 
   1210 PE             7255 ****               0 ****  **** 
   1211 PE             7261 ****               0 ****  **** 
   1212 PE             7267 ****               0 ****  **** 
   1213 PE             7273 ****               0 ****  **** 
   1214 PE             7279 ****               0 ****  **** 
   1215 PE             7285 ****               0 ****  **** 
   1216 PE             7291 ****               0 ****  **** 
   1217 PE             7297 ****               0 ****  **** 
   1218 PE             7303 ****               0 ****  **** 
   1219 PE             7309 ****               0 ****  **** 
   1220 PE             7315 ****               0 ****  **** 
   1221 PE             7321 ****               0 ****  **** 
   1222 PE             7327 ****               0 ****  **** 
   1223 PE             7333 ****               0 ****  **** 
   1224 PE             7339 ****               0 ****  **** 
   1225 PE             7345 ****               0 ****  **** 
   1226 PE             7351 ****               0 ****  **** 
   1227 PE             7357 ****               0 ****  **** 
   1228 PE             7363 ****               0 ****  **** 
   1229 PE             7369 ****               0 ****  **** 
   1230 PE             7375 ****               0 ****  **** 
   1231 PE             7381 ****               0 ****  **** 
   1232 PE             7387 ****               0 ****  **** 
   1233 PE             7393 ****               0 ****  **** 
   1234 PE             7399 ****               0 ****  **** 
   1235 PE             7405 ****               0 ****  **** 
   1236 PE             7411 ****               0 ****  **** 
   1237 PE             7417 ****               0 ****  **** 
   1238 PE             7423 ****               0 ****  **** 
   1239 PE             7429 ****               0 ****  **** 
   1240 PE             7435 ****               0 ****  **** 
   1241 PE             7441 ****               0 ****  **** 
   1242 PE             7447 ****               0 ****  **** 
   1243 PE             7453 ****               0 ****  **** 
   1244 PE             7459 ****               0 ****  **** 
   1245 PE             7465 ****               0 ****  **** 
   1246 PE             7471 ****               0 ****  **** 
   1247 PE             7477 ****               0 ****  **** 
   1248 PE             7483 ****               0 ****  **** 
   1249 PE             7489 ****               0 ****  **** 
   1250 PE             7495 ****               0 ****  **** 
   1251 PE             7501 ****               0 ****  **** 
   1252 PE             7507 ****               0 ****  **** 
   1253 PE             7513 ****               0 ****  **** 
   1254 PE             7519 ****               0 ****  **** 
   1255 PE             7525 ****               0 ****  **** 
   1256 PE             7531 ****               0 ****  **** 
   1257 PE             7537 ****               0 ****  **** 
   1258 PE             7543 ****               0 ****  **** 
   1259 PE             7549 ****               0 ****  **** 
   1260 PE             7555 ****               0 ****  **** 
   1261 PE             7561 ****               0 ****  **** 
   1262 PE             7567 ****               0 ****  **** 
   1263 PE             7573 ****               0 ****  **** 
   1264 PE             7579 ****               0 ****  **** 
   1265 PE             7585 ****               0 ****  **** 
   1266 PE             7591 ****               0 ****  **** 
   1267 PE             7597 ****               0 ****  **** 
   1268 PE             7603 ****               0 ****  **** 
   1269 PE             7609 ****               0 ****  **** 
   1270 PE             7615 ****               0 ****  **** 
   1271 PE             7621 ****               0 ****  **** 
   1272 PE             7627 ****               0 ****  **** 
   1273 PE             7633 ****               0 ****  **** 
   1274 PE             7639 ****               0 ****  **** 
   1275 PE             7645 ****               0 ****  **** 
   1276 PE             7651 ****               0 ****  **** 
   1277 PE             7657 ****               0 ****  **** 
   1278 PE             7663 ****               0 ****  **** 
   1279 PE             7669 ****               0 ****  **** 
   1280 PE             7675 ****               0 ****  **** 
   1281 PE             7681 ****               0 ****  **** 
   1282 PE             7687 ****               0 ****  **** 
   1283 PE             7693 ****               0 ****  **** 
   1284 PE             7699 ****               0 ****  **** 
   1285 PE             7705 ****               0 ****  **** 
   1286 PE             7711 ****               0 ****  **** 
   1287 PE             7717 ****               0 ****  **** 
   1288 PE             7723 ****               0 ****  **** 
   1289 PE             7729 ****               0 ****  **** 
   1290 PE             7735 ****               0 ****  **** 
   1291 PE             7741 ****               0 ****  **** 
   1292 PE             7747 ****               0 ****  **** 
   1293 PE             7753 ****               0 ****  **** 
   1294 PE             7759 ****               0 ****  **** 
   1295 PE             7765 ****               0 ****  **** 
   1296 PE             7771 ****               0 ****  **** 
   1297 PE             7777 ****               0 ****  **** 
   1298 PE             7783 ****               0 ****  **** 
   1299 PE             7789 ****               0 ****  **** 
   1300 PE             7795 ****               0 ****  **** 
   1301 PE             7801 ****               0 ****  **** 
   1302 PE             7807 ****               0 ****  **** 
   1303 PE             7813 ****               0 ****  **** 
   1304 PE             7819 ****               0 ****  **** 
   1305 PE             7825 ****               0 ****  **** 
   1306 PE             7831 ****               0 ****  **** 
   1307 PE             7837 ****               0 ****  **** 
   1308 PE             7843 ****               0 ****  **** 
   1309 PE             7849 ****               0 ****  **** 
   1310 PE             7855 ****               0 ****  **** 
   1311 PE             7861 ****               0 ****  **** 
   1312 PE             7867 ****               0 ****  **** 
   1313 PE             7873 ****               0 ****  **** 
   1314 PE             7879 ****               0 ****  **** 
   1315 PE             7885 ****               0 ****  **** 
   1316 PE             7891 ****               0 ****  **** 
   1317 PE             7897 ****               0 ****  **** 
   1318 PE             7903 ****               0 ****  **** 
   1319 PE             7909 ****               0 ****  **** 
   1320 PE             7915 ****               0 ****  **** 
   1321 PE             7921 ****               0 ****  **** 
   1322 PE             7927 ****               0 ****  **** 
   1323 PE             7933 ****               0 ****  **** 
   1324 PE             7939 ****               0 ****  **** 
   1325 PE             7945 ****               0 ****  **** 
   1326 PE             7951 ****               0 ****  **** 
   1327 PE             7957 ****               0 ****  **** 
   1328 PE             7963 ****               0 ****  **** 
   1329 PE             7969 ****               0 ****  **** 
   1330 PE             7975 ****               0 ****  **** 
   1331 PE             7981 ****               0 ****  **** 
   1332 PE             7987 ****               0 ****  **** 
   1333 PE             7993 ****               0 ****  **** 
   1334 PE             7999 ****               0 ****  **** 
   1335 PE             8005 ****               0 ****  **** 
   1336 PE             8011 ****               0 ****  **** 
   1337 PE             8017 ****               0 ****  **** 
   1338 PE             8023 ****               0 ****  **** 
   1339 PE             8029 ****               0 ****  **** 
   1340 PE             8035 ****               0 ****  **** 
   1341 PE             8041 ****               0 ****  **** 
   1342 PE             8047 ****               0 ****  **** 
   1343 PE             8053 ****               0 ****  **** 
   1344 PE             8059 ****               0 ****  **** 
   1345 PE             8065 ****               0 ****  **** 
   1346 PE             8071 ****               0 ****  **** 
   1347 PE             8077 ****               0 ****  **** 
   1348 PE             8083 ****               0 ****  **** 
   1349 PE             8089 ****               0 ****  **** 
   1350 PE             8095 ****               0 ****  **** 
   1351 PE             8101 ****               0 ****  **** 
   1352 PE             8107 ****               0 ****  **** 
   1353 PE             8113 ****               0 ****  **** 
   1354 PE             8119 ****               0 ****  **** 
   1355 PE             8125 ****               0 ****  **** 
   1356 PE             8131 ****               0 ****  **** 
   1357 PE             8137 ****               0 ****  **** 
   1358 PE             8143 ****               0 ****  **** 
   1359 PE             8149 ****               0 ****  **** 
   1360 PE             8155 ****               0 ****  **** 
   1361 PE             8161 ****               0 ****  **** 
   1362 PE             8167 ****               0 ****  **** 
   1363 PE             8173 ****               0 ****  **** 
   1364 PE             8179 ****               0 ****  **** 
   1365 PE             8185 ****               0 ****  **** 
   1366 PE             8191 ****               0 ****  **** 
   1367 PE             8197 ****               0 ****  **** 
   1368 PE             8203 ****               0 ****  **** 
   1369 PE             8209 ****               0 ****  **** 
   1370 PE             8215 ****               0 ****  **** 
   1371 PE             8221 ****               0 ****  **** 
   1372 PE             8227 ****               0 ****  **** 
   1373 PE             8233 ****               0 ****  **** 
   1374 PE             8239 ****               0 ****  **** 
   1375 PE             8245 ****               0 ****  **** 
   1376 PE             8251 ****               0 ****  **** 
   1377 PE             8257 ****               0 ****  **** 
   1378 PE             8263 ****               0 ****  **** 
   1379 PE             8269 ****               0 ****  **** 
   1380 PE             8275 ****               0 ****  **** 
   1381 PE             8281 ****               0 ****  **** 
   1382 PE             8287 ****               0 ****  **** 
   1383 PE             8293 ****               0 ****  **** 
   1384 PE             8299 ****               0 ****  **** 
   1385 PE             8305 ****               0 ****  **** 
   1386 PE             8311 ****               0 ****  **** 
   1387 PE             8317 ****               0 ****  **** 
   1388 PE             8323 ****               0 ****  **** 
   1389 PE             8329 ****               0 ****  **** 
   1390 PE             8335 ****               0 ****  **** 
   1391 PE             8341 ****               0 ****  **** 
   1392 PE             8347 ****               0 ****  **** 
   1393 PE             8353 ****               0 ****  **** 
   1394 PE             8359 ****               0 ****  **** 
   1395 PE             8365 ****               0 ****  **** 
   1396 PE             8371 ****               0 ****  **** 
   1397 PE             8377 ****               0 ****  **** 
   1398 PE             8383 ****               0 ****  **** 
   1399 PE             8389 ****               0 ****  **** 
   1400 PE             8395 ****               0 ****  **** 
   1401 PE             8401 ****               0 ****  **** 
   1402 PE             8407 ****               0 ****  **** 
   1403 PE             8413 ****               0 ****  **** 
   1404 PE             8419 ****               0 ****  **** 
   1405 PE             8425 ****               0 ****  **** 
   1406 PE             8431 ****               0 ****  **** 
   1407 PE             8437 ****               0 ****  **** 
   1408 PE             8443 ****               0 ****  **** 
   1409 PE             8449 ****               0 ****  **** 
   1410 PE             8455 ****               0 ****  **** 
   1411 PE             8461 ****               0 ****  **** 
   1412 PE             8467 ****               0 ****  **** 
   1413 PE             8473 ****               0 ****  **** 
   1414 PE             8479 ****               0 ****  **** 
   1415 PE             8485 ****               0 ****  **** 
   1416 PE             8491 ****               0 ****  **** 
   1417 PE             8497 ****               0 ****  **** 
   1418 PE             8503 ****               0 ****  **** 
   1419 PE             8509 ****               0 ****  **** 
   1420 PE             8515 ****               0 ****  **** 
   1421 PE             8521 ****               0 ****  **** 
   1422 PE             8527 ****               0 ****  **** 
   1423 PE             8533 ****               0 ****  **** 
   1424 PE             8539 ****               0 ****  **** 
   1425 PE             8545 ****               0 ****  **** 
   1426 PE             8551 ****               0 ****  **** 
   1427 PE             8557 ****               0 ****  **** 
   1428 PE             8563 ****               0 ****  **** 
   1429 PE             8569 ****               0 ****  **** 
   1430 PE             8575 ****               0 ****  **** 
   1431 PE             8581 ****               0 ****  **** 
   1432 PE             8587 ****               0 ****  **** 
   1433 PE             8593 ****               0 ****  **** 
   1434 PE             8599 ****               0 ****  **** 
   1435 PE             8605 ****               0 ****  **** 
   1436 PE             8611 ****               0 ****  **** 
   1437 PE             8617 ****               0 ****  **** 
   1438 PE             8623 ****               0 ****  **** 
   1439 PE             8629 ****               0 ****  **** 
   1440 PE             8635 ****               0 ****  **** 
   1441 PE             8641 ****               0 ****  **** 
   1442 PE             8647 ****               0 ****  **** 
   1443 PE             8653 ****               0 ****  **** 
   1444 PE             8659 ****               0 ****  **** 
   1445 PE             8665 ****               0 ****  **** 
   1446 PE             8671 ****               0 ****  **** 
   1447 PE             8677 ****               0 ****  **** 
   1448 PE             8683 ****               0 ****  **** 
   1449 PE             8689 ****               0 ****  **** 
   1450 PE             8695 ****               0 ****  **** 
   1451 PE             8701 ****               0 ****  **** 
   1452 PE             8707 ****               0 ****  **** 
   1453 PE             8713 ****               0 ****  **** 
   1454 PE             8719 ****               0 ****  **** 
   1455 PE             8725 ****               0 ****  **** 
   1456 PE             8731 ****               0 ****  **** 
   1457 PE             8737 ****               0 ****  **** 
   1458 PE             8743 ****               0 ****  **** 
   1459 PE             8749 ****               0 ****  **** 
   1460 PE             8755 ****               0 ****  **** 
   1461 PE             8761 ****               0 ****  **** 
   1462 PE             8767 ****               0 ****  **** 
   1463 PE             8773 ****               0 ****  **** 
   1464 PE             8779 ****               0 ****  **** 
   1465 PE             8785 ****               0 ****  **** 
   1466 PE             8791 ****               0 ****  **** 
   1467 PE             8797 ****               0 ****  **** 
   1468 PE             8803 ****               0 ****  **** 
   1469 PE             8809 ****               0 ****  **** 
   1470 PE             8815 ****               0 ****  **** 
   1471 PE             8821 ****               0 ****  **** 
   1472 PE             8827 ****               0 ****  **** 
   1473 PE             8833 ****               0 ****  **** 
   1474 PE             8839 ****               0 ****  **** 
   1475 PE             8845 ****               0 ****  **** 
   1476 PE             8851 ****               0 ****  **** 
   1477 PE             8857 ****               0 ****  **** 
   1478 PE             8863 ****               0 ****  **** 
   1479 PE             8869 ****               0 ****  **** 
   1480 PE             8875 ****               0 ****  **** 
   1481 PE             8881 ****               0 ****  **** 
   1482 PE             8887 ****               0 ****  **** 
   1483 PE             8893 ****               0 ****  **** 
   1484 PE             8899 ****               0 ****  **** 
   1485 PE             8905 ****               0 ****  **** 
   1486 PE             8911 ****               0 ****  **** 
   1487 PE             8917 ****               0 ****  **** 
   1488 PE             8923 ****               0 ****  **** 
   1489 PE             8929 ****               0 ****  **** 
   1490 PE             8935 ****               0 ****  **** 
   1491 PE             8941 ****               0 ****  **** 
   1492 PE             8947 ****               0 ****  **** 
   1493 PE             8953 ****               0 ****  **** 
   1494 PE             8959 ****               0 ****  **** 
   1495 PE             8965 ****               0 ****  **** 
   1496 PE             8971 ****               0 ****  **** 
   1497 PE             8977 ****               0 ****  **** 
   1498 PE             8983 ****               0 ****  **** 
   1499 PE             8989 ****               0 ****  **** 
   1500 PE             8995 ****               0 ****  **** 
   1501 PE             9001 ****               0 ****  **** 
   1502 PE             9007 ****               0 ****  **** 
   1503 PE             9013 ****               0 ****  **** 
   1504 PE             9019 ****               0 ****  **** 
   1505 PE             9025 ****               0 ****  **** 
   1506 PE             9031 ****               0 ****  **** 
   1507 PE             9037 ****               0 ****  **** 
   1508 PE             9043 ****               0 ****  **** 
   1509 PE             9049 ****               0 ****  **** 
   1510 PE             9055 ****               0 ****  **** 
   1511 PE             9061 ****               0 ****  **** 
   1512 PE             9067 ****               0 ****  **** 
   1513 PE             9073 ****               0 ****  **** 
   1514 PE             9079 ****               0 ****  **** 
   1515 PE             9085 ****               0 ****  **** 
   1516 PE             9091 ****               0 ****  **** 
   1517 PE             9097 ****               0 ****  **** 
   1518 PE             9103 ****               0 ****  **** 
   1519 PE             9109 ****               0 ****  **** 
   1520 PE             9115 ****               0 ****  **** 
   1521 PE             9121 ****               0 ****  **** 
   1522 PE             9127 ****               0 ****  **** 
   1523 PE             9133 ****               0 ****  **** 
   1524 PE             9139 ****               0 ****  **** 
   1525 PE             9145 ****               0 ****  **** 
   1526 PE             9151 ****               0 ****  **** 
   1527 PE             9157 ****               0 ****  **** 
   1528 PE             9163 ****               0 ****  **** 
   1529 PE             9169 ****               0 ****  **** 
   1530 PE             9175 ****               0 ****  **** 
   1531 PE             9181 ****               0 ****  **** 
   1532 PE             9187 ****               0 ****  **** 
   1533 PE             9193 ****               0 ****  **** 
   1534 PE             9199 ****               0 ****  **** 
   1535 PE             9205 ****               0 ****  **** 
   1536 PE             9211 ****               0 ****  **** 
   1537 PE             9217 ****               0 ****  **** 
   1538 PE             9223 ****               0 ****  **** 
   1539 PE             9229 ****               0 ****  **** 
   1540 PE             9235 ****               0 ****  **** 
   1541 PE             9241 ****               0 ****  **** 
   1542 PE             9247 ****               0 ****  **** 
   1543 PE             9253 ****               0 ****  **** 
   1544 PE             9259 ****               0 ****  **** 
   1545 PE             9265 ****               0 ****  **** 
   1546 PE             9271 ****               0 ****  **** 
   1547 PE             9277 ****               0 ****  **** 
   1548 PE             9283 ****               0 ****  **** 
   1549 PE             9289 ****               0 ****  **** 
   1550 PE             9295 ****               0 ****  **** 
   1551 PE             9301 ****               0 ****  **** 
   1552 PE             9307 ****               0 ****  **** 
   1553 PE             9313 ****               0 ****  **** 
   1554 PE             9319 ****               0 ****  **** 
   1555 PE             9325 ****               0 ****  **** 
   1556 PE             9331 ****               0 ****  **** 
   1557 PE             9337 ****               0 ****  **** 
   1558 PE             9343 ****               0 ****  **** 
   1559 PE             9349 ****               0 ****  **** 
   1560 PE             9355 ****               0 ****  **** 
   1561 PE             9361 ****               0 ****  **** 
   1562 PE             9367 ****               0 ****  **** 
   1563 PE             9373 ****               0 ****  **** 
   1564 PE             9379 ****               0 ****  **** 
   1565 PE             9385 ****               0 ****  **** 
   1566 PE             9391 ****               0 ****  **** 
   1567 PE             9397 ****               0 ****  **** 
   1568 PE             9403 ****               0 ****  **** 
   1569 PE             9409 ****               0 ****  **** 
   1570 PE             9415 ****               0 ****  **** 
   1571 PE             9421 ****               0 ****  **** 
   1572 PE             9427 ****               0 ****  **** 
   1573 PE             9433 ****               0 ****  **** 
   1574 PE             9439 ****               0 ****  **** 
   1575 PE             9445 ****               0 ****  **** 
   1576 PE             9451 ****               0 ****  **** 
   1577 PE             9457 ****               0 ****  **** 
   1578 PE             9463 ****               0 ****  **** 
   1579 PE             9469 ****               0 ****  **** 
   1580 PE             9475 ****               0 ****  **** 
   1581 PE             9481 ****               0 ****  **** 
   1582 PE             9487 ****               0 ****  **** 
   1583 PE             9493 ****               0 ****  **** 
   1584 PE             9499 ****               0 ****  **** 
   1585 PE             9505 ****               0 ****  **** 
   1586 PE             9511 ****               0 ****  **** 
   1587 PE             9517 ****               0 ****  **** 
   1588 PE             9523 ****               0 ****  **** 
   1589 PE             9529 ****               0 ****  **** 
   1590 PE             9535 ****               0 ****  **** 
   1591 PE             9541 ****               0 ****  **** 
   1592 PE             9547 ****               0 ****  **** 
   1593 PE             9553 ****               0 ****  **** 
   1594 PE             9559 ****               0 ****  **** 
   1595 PE             9565 ****               0 ****  **** 
   1596 PE             9571 ****               0 ****  **** 
   1597 PE             9577 ****               0 ****  **** 
   1598 PE             9583 ****               0 ****  **** 
   1599 PE             9589 ****               0 ****  **** 
   1600 PE             9595 ****               0 ****  **** 
   1601 PE             9601 ****               0 ****  **** 
   1602 PE             9607 ****               0 ****  **** 
   1603 PE             9613 ****               0 ****  **** 
   1604 PE             9619 ****               0 ****  **** 
   1605 PE             9625 ****               0 ****  **** 
   1606 PE             9631 ****               0 ****  **** 
   1607 PE             9637 ****               0 ****  **** 
   1608 PE             9643 ****               0 ****  **** 
   1609 PE             9649 ****               0 ****  **** 
   1610 PE             9655 ****               0 ****  **** 
   1611 PE             9661 ****               0 ****  **** 
   1612 PE             9667 ****               0 ****  **** 
   1613 PE             9673 ****               0 ****  **** 
   1614 PE             9679 ****               0 ****  **** 
   1615 PE             9685 ****               0 ****  **** 
   1616 PE             9691 ****               0 ****  **** 
   1617 PE             9697 ****               0 ****  **** 
   1618 PE             9703 ****               0 ****  **** 
   1619 PE             9709 ****               0 ****  **** 
   1620 PE             9715 ****               0 ****  **** 
   1621 PE             9721 ****               0 ****  **** 
   1622 PE             9727 ****               0 ****  **** 
   1623 PE             9733 ****               0 ****  **** 
   1624 PE             9739 ****               0 ****  **** 
   1625 PE             9745 ****               0 ****  **** 
   1626 PE             9751 ****               0 ****  **** 
   1627 PE             9757 ****               0 ****  **** 
   1628 PE             9763 ****               0 ****  **** 
   1629 PE             9769 ****               0 ****  **** 
   1630 PE             9775 ****               0 ****  **** 
   1631 PE             9781 ****               0 ****  **** 
   1632 PE             9787 ****               0 ****  **** 
   1633 PE             9793 ****               0 ****  **** 
   1634 PE             9799 ****               0 ****  **** 
   1635 PE             9805 ****               0 ****  **** 
   1636 PE             9811 ****               0 ****  **** 
   1637 PE             9817 ****               0 ****  **** 
   1638 PE             9823 ****               0 ****  **** 
   1639 PE             9829 ****               0 ****  **** 
   1640 PE             9835 ****               0 ****  **** 
   1641 PE             9841 ****               0 ****  **** 
   1642 PE             9847 ****               0 ****  **** 
   1643 PE             9853 ****               0 ****  **** 
   1644 PE             9859 ****               0 ****  **** 
   1645 PE             9865 ****               0 ****  **** 
   1646 PE             9871 ****               0 ****  **** 
   1647 PE             9877 ****               0 ****  **** 
   1648 PE             9883 ****               0 ****  **** 
   1649 PE             9889 ****               0 ****  **** 
   1650 PE             9895 ****               0 ****  **** 
   1651 PE             9901 ****               0 ****  **** 
   1652 PE             9907 ****               0 ****  **** 
   1653 PE             9913 ****               0 ****  **** 
   1654 PE             9919 ****               0 ****  **** 
   1655 PE             9925 ****               0 ****  **** 
   1656 PE             9931 ****               0 ****  **** 
   1657 PE             9937 ****               0 ****  **** 
   1658 PE             9943 ****               0 ****  **** 
   1659 PE             9949 ****               0 ****  **** 
   1660 PE             9955 ****               0 ****  **** 
   1661 PE             9961 ****               0 ****  **** 
   1662 PE             9967 ****               0 ****  **** 
   1663 PE             9973 ****               0 ****  **** 
   1664 PE             9979 ****               0 ****  **** 
   1665 PE             9985 ****               0 ****  **** 
   1666 PE             9991 ****               0 ****  **** 
   1667 PE             9997 ****               0 ****  **** 
   1668 PE            10003 ****               0 ****  **** 
   1669 PE            10009 ****               0 ****  **** 
   1670 PE            10015 ****               0 ****  **** 
   1671 PE            10021 ****               0 ****  **** 
   1672 PE            10027 ****               0 ****  **** 
   1673 PE            10033 ****               0 ****  **** 
   1674 PE            10039 ****               0 ****  **** 
   1675 PE            10045 ****               0 ****  **** 
   1676 PE            10051 ****               0 ****  **** 
   1677 PE            10057 ****               0 ****  **** 
   1678 PE            10063 ****               0 ****  **** 
   1679 PE            10069 ****               0 ****  **** 
   1680 PE            10075 ****               0 ****  **** 
   1681 PE            10081 ****               0 ****  **** 
   1682 PE            10087 ****               0 ****  **** 
   1683 PE            10093 ****               0 ****  **** 
   1684 PE            10099 ****               0 ****  **** 
   1685 PE            10105 ****               0 ****  **** 
   1686 PE            10111 ****               0 ****  **** 
   1687 PE            10117 ****               0 ****  **** 
   1688 PE            10123 ****               0 ****  **** 
   1689 PE            10129 ****               0 ****  **** 
   1690 PE            10135 ****               0 ****  **** 
   1691 PE            10141 ****               0 ****  **** 
   1692 PE            10147 ****               0 ****  **** 
   1693 PE            10153 ****               0 ****  **** 
   1694 PE            10159 ****               0 ****  **** 
   1695 PE            10165 ****               0 ****  **** 
   1696 PE            10171 ****               0 ****  **** 
   1697 PE            10177 ****               0 ****  **** 
   1698 PE            10183 ****               0 ****  **** 
   1699 PE            10189 ****               0 ****  **** 
   1700 PE            10195 ****               0 ****  **** 
   1701 PE            10201 ****               0 ****  **** 
   1702 PE            10207 ****               0 ****  **** 
   1703 PE            10213 ****               0 ****  **** 
   1704 PE            10219 ****               0 ****  **** 
   1705 PE            10225 ****               0 ****  **** 
   1706 PE            10231 ****               0 ****  **** 
   1707 PE            10237 ****               0 ****  **** 
   1708 PE            10243 ****               0 ****  **** 
   1709 PE            10249 ****               0 ****  **** 
   1710 PE            10255 ****               0 ****  **** 
   1711 PE            10261 ****               0 ****  **** 
   1712 PE            10267 ****               0 ****  **** 
   1713 PE            10273 ****               0 ****  **** 
   1714 PE            10279 ****               0 ****  **** 
   1715 PE            10285 ****               0 ****  **** 
   1716 PE            10291 ****               0 ****  **** 
   1717 PE            10297 ****               0 ****  **** 
   1718 PE            10303 ****               0 ****  **** 
   1719 PE            10309 ****               0 ****  **** 
   1720 PE            10315 ****               0 ****  **** 
   1721 PE            10321 ****               0 ****  **** 
   1722 PE            10327 ****               0 ****  **** 
   1723 PE            10333 ****               0 ****  **** 
   1724 PE            10339 ****               0 ****  **** 
   1725 PE            10345 ****               0 ****  **** 
   1726 PE            10351 ****               0 ****  **** 
   1727 PE            10357 ****               0 ****  **** 
   1728 PE            10363 ****               0 ****  **** 
   1729 PE            10369 ****               0 ****  **** 
   1730 PE            10375 ****               0 ****  **** 
   1731 PE            10381 ****               0 ****  **** 
   1732 PE            10387 ****               0 ****  **** 
   1733 PE            10393 ****               0 ****  **** 
   1734 PE            10399 ****               0 ****  **** 
   1735 PE            10405 ****               0 ****  **** 
   1736 PE            10411 ****               0 ****  **** 
   1737 PE            10417 ****               0 ****  **** 
   1738 PE            10423 ****               0 ****  **** 
   1739 PE            10429 ****               0 ****  **** 
   1740 PE            10435 ****               0 ****  **** 
   1741 PE            10441 ****               0 ****  **** 
   1742 PE            10447 ****               0 ****  **** 
   1743 PE            10453 ****               0 ****  **** 
   1744 PE            10459 ****               0 ****  **** 
   1745 PE            10465 ****               0 ****  **** 
   1746 PE            10471 ****               0 ****  **** 
   1747 PE            10477 ****               0 ****  **** 
   1748 PE            10483 ****               0 ****  **** 
   1749 PE            10489 ****               0 ****  **** 
   1750 PE            10495 ****               0 ****  **** 
   1751 PE            10501 ****               0 ****  **** 
   1752 PE            10507 ****               0 ****  **** 
   1753 PE            10513 ****               0 ****  **** 
   1754 PE            10519 ****               0 ****  **** 
   1755 PE            10525 ****               0 ****  **** 
   1756 PE            10531 ****               0 ****  **** 
   1757 PE            10537 ****               0 ****  **** 
   1758 PE            10543 ****               0 ****  **** 
   1759 PE            10549 ****               0 ****  **** 
   1760 PE            10555 ****               0 ****  **** 
   1761 PE            10561 ****               0 ****  **** 
   1762 PE            10567 ****               0 ****  **** 
   1763 PE            10573 ****               0 ****  **** 
   1764 PE            10579 ****               0 ****  **** 
   1765 PE            10585 ****               0 ****  **** 
   1766 PE            10591 ****               0 ****  **** 
   1767 PE            10597 ****               0 ****  **** 
   1768 PE            10603 ****               0 ****  **** 
   1769 PE            10609 ****               0 ****  **** 
   1770 PE            10615 ****               0 ****  **** 
   1771 PE            10621 ****               0 ****  **** 
   1772 PE            10627 ****               0 ****  **** 
   1773 PE            10633 ****               0 ****  **** 
   1774 PE            10639 ****               0 ****  **** 
   1775 PE            10645 ****               0 ****  **** 
   1776 PE            10651 ****               0 ****  **** 
   1777 PE            10657 ****               0 ****  **** 
   1778 PE            10663 ****               0 ****  **** 
   1779 PE            10669 ****               0 ****  **** 
   1780 PE            10675 ****               0 ****  **** 
   1781 PE            10681 ****               0 ****  **** 
   1782 PE            10687 ****               0 ****  **** 
   1783 PE            10693 ****               0 ****  **** 
   1784 PE            10699 ****               0 ****  **** 
   1785 PE            10705 ****               0 ****  **** 
   1786 PE            10711 ****               0 ****  **** 
   1787 PE            10717 ****               0 ****  **** 
   1788 PE            10723 ****               0 ****  **** 
   1789 PE            10729 ****               0 ****  **** 
   1790 PE            10735 ****               0 ****  **** 
   1791 PE            10741 ****               0 ****  **** 
   1792 PE            10747 ****               0 ****  **** 
   1793 PE            10753 ****               0 ****  **** 
   1794 PE            10759 ****               0 ****  **** 
   1795 PE            10765 ****               0 ****  **** 
   1796 PE            10771 ****               0 ****  **** 
   1797 PE            10777 ****               0 ****  **** 
   1798 PE            10783 ****               0 ****  **** 
   1799 PE            10789 ****               0 ****  **** 
   1800 PE            10795 ****               0 ****  **** 
   1801 PE            10801 ****               0 ****  **** 
   1802 PE            10807 ****               0 ****  **** 
   1803 PE            10813 ****               0 ****  **** 
   1804 PE            10819 ****               0 ****  **** 
   1805 PE            10825 ****               0 ****  **** 
   1806 PE            10831 ****               0 ****  **** 
   1807 PE            10837 ****               0 ****  **** 
   1808 PE            10843 ****               0 ****  **** 
   1809 PE            10849 ****               0 ****  **** 
   1810 PE            10855 ****               0 ****  **** 
   1811 PE            10861 ****               0 ****  **** 
   1812 PE            10867 ****               0 ****  **** 
   1813 PE            10873 ****               0 ****  **** 
   1814 PE            10879 ****               0 ****  **** 
   1815 PE            10885 ****               0 ****  **** 
   1816 PE            10891 ****               0 ****  **** 
   1817 PE            10897 ****               0 ****  **** 
   1818 PE            10903 ****               0 ****  **** 
   1819 PE            10909 ****               0 ****  **** 
   1820 PE            10915 ****               0 ****  **** 
   1821 PE            10921 ****               0 ****  **** 
   1822 PE            10927 ****               0 ****  **** 
   1823 PE            10933 ****               0 ****  **** 
   1824 PE            10939 ****               0 ****  **** 
   1825 PE            10945 ****               0 ****  **** 
   1826 PE            10951 ****               0 ****  **** 
   1827 PE            10957 ****               0 ****  **** 
   1828 PE            10963 ****               0 ****  **** 
   1829 PE            10969 ****               0 ****  **** 
   1830 PE            10975 ****               0 ****  **** 
   1831 PE            10981 ****               0 ****  **** 
   1832 PE            10987 ****               0 ****  **** 
   1833 PE            10993 ****               0 ****  **** 
   1834 PE            10999 ****               0 ****  **** 
   1835 PE            11005 ****               0 ****  **** 
   1836 PE            11011 ****               0 ****  **** 
   1837 PE            11017 ****               0 ****  **** 
   1838 PE            11023 ****               0 ****  **** 
   1839 PE            11029 ****               0 ****  **** 
   1840 PE            11035 ****               0 ****  **** 
   1841 PE            11041 ****               0 ****  **** 
   1842 PE            11047 ****               0 ****  **** 
   1843 PE            11053 ****               0 ****  **** 
   1844 PE            11059 ****               0 ****  **** 
   1845 PE            11065 ****               0 ****  **** 
   1846 PE            11071 ****               0 ****  **** 
   1847 PE            11077 ****               0 ****  **** 
   1848 PE            11083 ****               0 ****  **** 
   1849 PE            11089 ****               0 ****  **** 
   1850 PE            11095 ****               0 ****  **** 
   1851 PE            11101 ****               0 ****  **** 
   1852 PE            11107 ****               0 ****  **** 
   1853 PE            11113 ****               0 ****  **** 
   1854 PE            11119 ****               0 ****  **** 
   1855 PE            11125 ****               0 ****  **** 
   1856 PE            11131 ****               0 ****  **** 
   1857 PE            11137 ****               0 ****  **** 
   1858 PE            11143 ****               0 ****  **** 
   1859 PE            11149 ****               0 ****  **** 
   1860 PE            11155 ****               0 ****  **** 
   1861 PE            11161 ****               0 ****  **** 
   1862 PE            11167 ****               0 ****  **** 
   1863 PE            11173 ****               0 ****  **** 
   1864 PE            11179 ****               0 ****  **** 
   1865 PE            11185 ****               0 ****  **** 
   1866 PE            11191 ****               0 ****  **** 
   1867 PE            11197 ****               0 ****  **** 
   1868 PE            11203 ****               0 ****  **** 
   1869 PE            11209 ****               0 ****  **** 
   1870 PE            11215 ****               0 ****  **** 
   1871 PE            11221 ****               0 ****  **** 
   1872 PE            11227 ****               0 ****  **** 
   1873 PE            11233 ****               0 ****  **** 
   1874 PE            11239 ****               0 ****  **** 
   1875 PE            11245 ****               0 ****  **** 
   1876 PE            11251 ****               0 ****  **** 
   1877 PE            11257 ****               0 ****  **** 
   1878 PE            11263 ****               0 ****  **** 
   1879 PE            11269 ****               0 ****  **** 
   1880 PE            11275 ****               0 ****  **** 
   1881 PE            11281 ****               0 ****  **** 
   1882 PE            11287 ****               0 ****  **** 
   1883 PE            11293 ****               0 ****  **** 
   1884 PE            11299 ****               0 ****  **** 
   1885 PE            11305 ****               0 ****  **** 
   1886 PE            11311 ****               0 ****  **** 
   1887 PE            11317 ****               0 ****  **** 
   1888 PE            11323 ****               0 ****  **** 
   1889 PE            11329 ****               0 ****  **** 
   1890 PE            11335 ****               0 ****  **** 
   1891 PE            11341 ****               0 ****  **** 
   1892 PE            11347 ****               0 ****  **** 
   1893 PE            11353 ****               0 ****  **** 
   1894 PE            11359 ****               0 ****  **** 
   1895 PE            11365 ****               0 ****  **** 
   1896 PE            11371 ****               0 ****  **** 
   1897 PE            11377 ****               0 ****  **** 
   1898 PE            11383 ****               0 ****  **** 
   1899 PE            11389 ****               0 ****  **** 
   1900 PE            11395 ****               0 ****  **** 
   1901 PE            11401 ****               0 ****  **** 
   1902 PE            11407 ****               0 ****  **** 
   1903 PE            11413 ****               0 ****  **** 
   1904 PE            11419 ****               0 ****  **** 
   1905 PE            11425 ****               0 ****  **** 
   1906 PE            11431 ****               0 ****  **** 
   1907 PE            11437 ****               0 ****  **** 
   1908 PE            11443 ****               0 ****  **** 
   1909 PE            11449 ****               0 ****  **** 
   1910 PE            11455 ****               0 ****  **** 
   1911 PE            11461 ****               0 ****  **** 
   1912 PE            11467 ****               0 ****  **** 
   1913 PE            11473 ****               0 ****  **** 
   1914 PE            11479 ****               0 ****  **** 
   1915 PE            11485 ****               0 ****  **** 
   1916 PE            11491 ****               0 ****  **** 
   1917 PE            11497 ****               0 ****  **** 
   1918 PE            11503 ****               0 ****  **** 
   1919 PE            11509 ****               0 ****  **** 
   1920 PE            11515 ****               0 ****  **** 
   1921 PE            11521 ****               0 ****  **** 
   1922 PE            11527 ****               0 ****  **** 
   1923 PE            11533 ****               0 ****  **** 
   1924 PE            11539 ****               0 ****  **** 
   1925 PE            11545 ****               0 ****  **** 
   1926 PE            11551 ****               0 ****  **** 
   1927 PE            11557 ****               0 ****  **** 
   1928 PE            11563 ****               0 ****  **** 
   1929 PE            11569 ****               0 ****  **** 
   1930 PE            11575 ****               0 ****  **** 
   1931 PE            11581 ****               0 ****  **** 
   1932 PE            11587 ****               0 ****  **** 
   1933 PE            11593 ****               0 ****  **** 
   1934 PE            11599 ****               0 ****  **** 
   1935 PE            11605 ****               0 ****  **** 
   1936 PE            11611 ****               0 ****  **** 
   1937 PE            11617 ****               0 ****  **** 
   1938 PE            11623 ****               0 ****  **** 
   1939 PE            11629 ****               0 ****  **** 
   1940 PE            11635 ****               0 ****  **** 
   1941 PE            11641 ****               0 ****  **** 
   1942 PE            11647 ****               0 ****  **** 
   1943 PE            11653 ****               0 ****  **** 
   1944 PE            11659 ****               0 ****  **** 
   1945 PE            11665 ****               0 ****  **** 
   1946 PE            11671 ****               0 ****  **** 
   1947 PE            11677 ****               0 ****  **** 
   1948 PE            11683 ****               0 ****  **** 
   1949 PE            11689 ****               0 ****  **** 
   1950 PE            11695 ****               0 ****  **** 
   1951 PE            11701 ****               0 ****  **** 
   1952 PE            11707 ****               0 ****  **** 
   1953 PE            11713 ****               0 ****  **** 
   1954 PE            11719 ****               0 ****  **** 
   1955 PE            11725 ****               0 ****  **** 
   1956 PE            11731 ****               0 ****  **** 
   1957 PE            11737 ****               0 ****  **** 
   1958 PE            11743 ****               0 ****  **** 
   1959 PE            11749 ****               0 ****  **** 
   1960 PE            11755 ****               0 ****  **** 
   1961 PE            11761 ****               0 ****  **** 
   1962 PE            11767 ****               0 ****  **** 
   1963 PE            11773 ****               0 ****  **** 
   1964 PE            11779 ****               0 ****  **** 
   1965 PE            11785 ****               0 ****  **** 
   1966 PE            11791 ****               0 ****  **** 
   1967 PE            11797 ****               0 ****  **** 
   1968 PE            11803 ****               0 ****  **** 
   1969 PE            11809 ****               0 ****  **** 
   1970 PE            11815 ****               0 ****  **** 
   1971 PE            11821 ****               0 ****  **** 
   1972 PE            11827 ****               0 ****  **** 
   1973 PE            11833 ****               0 ****  **** 
   1974 PE            11839 ****               0 ****  **** 
   1975 PE            11845 ****               0 ****  **** 
   1976 PE            11851 ****               0 ****  **** 
   1977 PE            11857 ****               0 ****  **** 
   1978 PE            11863 ****               0 ****  **** 
   1979 PE            11869 ****               0 ****  **** 
   1980 PE            11875 ****               0 ****  **** 
   1981 PE            11881 ****               0 ****  **** 
   1982 PE            11887 ****               0 ****  **** 
   1983 PE            11893 ****               0 ****  **** 
   1984 PE            11899 ****               0 ****  **** 
   1985 PE            11905 ****               0 ****  **** 
   1986 PE            11911 ****               0 ****  **** 
   1987 PE            11917 ****               0 ****  **** 
   1988 PE            11923 ****               0 ****  **** 
   1989 PE            11929 ****               0 ****  **** 
   1990 PE            11935 ****               0 ****  **** 
   1991 PE            11941 ****               0 ****  **** 
   1992 PE            11947 ****               0 ****  **** 
   1993 PE            11953 ****               0 ****  **** 
   1994 PE            11959 ****               0 ****  **** 
   1995 PE            11965 ****               0 ****  **** 
   1996 PE            11971 ****               0 ****  **** 
   1997 PE            11977 ****               0 ****  **** 
   1998 PE            11983 ****               0 ****  **** 
   1999 PE            11989 ****               0 ****  **** 
   2000 PE            11995 ****               0 ****  **** 
   2001 PE            12001 ****               0 ****  **** 
   2002 PE            12007 ****               0 ****  **** 
   2003 PE            12013 ****               0 ****  **** 
   2004 PE            12019 ****               0 ****  **** 
   2005 PE            12025 ****               0 ****  **** 
   2006 PE            12031 ****               0 ****  **** 
   2007 PE            12037 ****               0 ****  **** 
   2008 PE            12043 ****               0 ****  **** 
   2009 PE            12049 ****               0 ****  **** 
   2010 PE            12055 ****               0 ****  **** 
   2011 PE            12061 ****               0 ****  **** 
   2012 PE            12067 ****               0 ****  **** 
   2013 PE            12073 ****               0 ****  **** 
   2014 PE            12079 ****               0 ****  **** 
   2015 PE            12085 ****               0 ****  **** 
   2016 PE            12091 ****               0 ****  **** 
   2017 PE            12097 ****               0 ****  **** 
   2018 PE            12103 ****               0 ****  **** 
   2019 PE            12109 ****               0 ****  **** 
   2020 PE            12115 ****               0 ****  **** 
   2021 PE            12121 ****               0 ****  **** 
   2022 PE            12127 ****               0 ****  **** 
   2023 PE            12133 ****               0 ****  **** 
   2024 PE            12139 ****               0 ****  **** 
   2025 PE            12145 ****               0 ****  **** 
   2026 PE            12151 ****               0 ****  **** 
   2027 PE            12157 ****               0 ****  **** 
   2028 PE            12163 ****               0 ****  **** 
   2029 PE            12169 ****               0 ****  **** 
   2030 PE            12175 ****               0 ****  **** 
   2031 PE            12181 ****               0 ****  **** 
   2032 PE            12187 ****               0 ****  **** 
   2033 PE            12193 ****               0 ****  **** 
   2034 PE            12199 ****               0 ****  **** 
   2035 PE            12205 ****               0 ****  **** 
   2036 PE            12211 ****               0 ****  **** 
   2037 PE            12217 ****               0 ****  **** 
   2038 PE            12223 ****               0 ****  **** 
   2039 PE            12229 ****               0 ****  **** 
   2040 PE            12235 ****               0 ****  **** 
   2041 PE            12241 ****               0 ****  **** 
   2042 PE            12247 ****               0 ****  **** 
   2043 PE            12253 ****               0 ****  **** 
   2044 PE            12259 ****               0 ****  **** 
   2045 PE            12265 ****               0 ****  **** 
   2046 PE            12271 ****               0 ****  **** 
   2047 PE            12277 ****               0 ****  **** 
   2048 PE            12283 ****               0 ****  **** 
   2049 PE            12289 ****               0 ****  **** 
   2050 PE            12295 ****               0 ****  **** 
   2051 PE            12301 ****               0 ****  **** 
   2052 PE            12307 ****               0 ****  **** 
   2053 PE            12313 ****               0 ****  **** 
   2054 PE            12319 ****               0 ****  **** 
   2055 PE            12325 ****               0 ****  **** 
   2056 PE            12331 ****               0 ****  **** 
   2057 PE            12337 ****               0 ****  **** 
   2058 PE            12343 ****               0 ****  **** 
   2059 PE            12349 ****               0 ****  **** 
   2060 PE            12355 ****               0 ****  **** 
   2061 PE            12361 ****               0 ****  **** 
   2062 PE            12367 ****               0 ****  **** 
   2063 PE            12373 ****               0 ****  **** 
   2064 PE            12379 ****               0 ****  **** 
   2065 PE            12385 ****               0 ****  **** 
   2066 PE            12391 ****               0 ****  **** 
   2067 PE            12397 ****               0 ****  **** 
   2068 PE            12403 ****               0 ****  **** 
   2069 PE            12409 ****               0 ****  **** 
   2070 PE            12415 ****               0 ****  **** 
   2071 PE            12421 ****               0 ****  **** 
   2072 PE            12427 ****               0 ****  **** 
   2073 PE            12433 ****               0 ****  **** 
   2074 PE            12439 ****               0 ****  **** 
   2075 PE            12445 ****               0 ****  **** 
   2076 PE            12451 ****               0 ****  **** 
   2077 PE            12457 ****               0 ****  **** 
   2078 PE            12463 ****               0 ****  **** 
   2079 PE            12469 ****               0 ****  **** 
   2080 PE            12475 ****               0 ****  **** 
   2081 PE            12481 ****               0 ****  **** 
   2082 PE            12487 ****               0 ****  **** 
   2083 PE            12493 ****               0 ****  **** 
   2084 PE            12499 ****               0 ****  **** 
   2085 PE            12505 ****               0 ****  **** 
   2086 PE            12511 ****               0 ****  **** 
   2087 PE            12517 ****               0 ****  **** 
   2088 PE            12523 ****               0 ****  **** 
   2089 PE            12529 ****               0 ****  **** 
   2090 PE            12535 ****               0 ****  **** 
   2091 PE            12541 ****               0 ****  **** 
   2092 PE            12547 ****               0 ****  **** 
   2093 PE            12553 ****               0 ****  **** 
   2094 PE            12559 ****               0 ****  **** 
   2095 PE            12565 ****               0 ****  **** 
   2096 PE            12571 ****               0 ****  **** 
   2097 PE            12577 ****               0 ****  **** 
   2098 PE            12583 ****               0 ****  **** 
   2099 PE            12589 ****               0 ****  **** 
   2100 PE            12595 ****               0 ****  **** 
   2101 PE            12601 ****               0 ****  **** 
   2102 PE            12607 ****               0 ****  **** 
   2103 PE            12613 ****               0 ****  **** 
   2104 PE            12619 ****               0 ****  **** 
   2105 PE            12625 ****               0 ****  **** 
   2106 PE            12631 ****               0 ****  **** 
   2107 PE            12637 ****               0 ****  **** 
   2108 PE            12643 ****               0 ****  **** 
   2109 PE            12649 ****               0 ****  **** 
   2110 PE            12655 ****               0 ****  **** 
   2111 PE            12661 ****               0 ****  **** 
   2112 PE            12667 ****               0 ****  **** 
   2113 PE            12673 ****               0 ****  **** 
   2114 PE            12679 ****               0 ****  **** 
   2115 PE            12685 ****               0 ****  **** 
   2116 PE            12691 ****               0 ****  **** 
   2117 PE            12697 ****               0 ****  **** 
   2118 PE            12703 ****               0 ****  **** 
   2119 PE            12709 ****               0 ****  **** 
   2120 PE            12715 ****               0 ****  **** 
   2121 PE            12721 ****               0 ****  **** 
   2122 PE            12727 ****               0 ****  **** 
   2123 PE            12733 ****               0 ****  **** 
   2124 PE            12739 ****               0 ****  **** 
   2125 PE            12745 ****               0 ****  **** 
   2126 PE            12751 ****               0 ****  **** 
   2127 PE            12757 ****               0 ****  **** 
   2128 PE            12763 ****               0 ****  **** 
   2129 PE            12769 ****               0 ****  **** 
   2130 PE            12775 ****               0 ****  **** 
   2131 PE            12781 ****               0 ****  **** 
   2132 PE            12787 ****               0 ****  **** 
   2133 PE            12793 ****               0 ****  **** 
   2134 PE            12799 ****               0 ****  **** 
   2135 PE            12805 ****               0 ****  **** 
   2136 PE            12811 ****               0 ****  **** 
   2137 PE            12817 ****               0 ****  **** 
   2138 PE            12823 ****               0 ****  **** 
   2139 PE            12829 ****               0 ****  **** 
   2140 PE            12835 ****               0 ****  **** 
   2141 PE            12841 ****               0 ****  **** 
   2142 PE            12847 ****               0 ****  **** 
   2143 PE            12853 ****               0 ****  **** 
   2144 PE            12859 ****               0 ****  **** 
   2145 PE            12865 ****               0 ****  **** 
   2146 PE            12871 ****               0 ****  **** 
   2147 PE            12877 ****               0 ****  **** 
   2148 PE            12883 ****               0 ****  **** 
   2149 PE            12889 ****               0 ****  **** 
   2150 PE            12895 ****               0 ****  **** 
   2151 PE            12901 ****               0 ****  **** 
   2152 PE            12907 ****               0 ****  **** 
   2153 PE            12913 ****               0 ****  **** 
   2154 PE            12919 ****               0 ****  **** 
   2155 PE            12925 ****               0 ****  **** 
   2156 PE            12931 ****               0 ****  **** 
   2157 PE            12937 ****               0 ****  **** 
   2158 PE            12943 ****               0 ****  **** 
   2159 PE            12949 ****               0 ****  **** 
   2160 PE            12955 ****               0 ****  **** 
   2161 PE            12961 ****               0 ****  **** 
   2162 PE            12967 ****               0 ****  **** 
   2163 PE            12973 ****               0 ****  **** 
   2164 PE            12979 ****               0 ****  **** 
   2165 PE            12985 ****               0 ****  **** 
   2166 PE            12991 ****               0 ****  **** 
   2167 PE            12997 ****               0 ****  **** 
   2168 PE            13003 ****               0 ****  **** 
   2169 PE            13009 ****               0 ****  **** 
   2170 PE            13015 ****               0 ****  **** 
   2171 PE            13021 ****               0 ****  **** 
   2172 PE            13027 ****               0 ****  **** 
   2173 PE            13033 ****               0 ****  **** 
   2174 PE            13039 ****               0 ****  **** 
   2175 PE            13045 ****               0 ****  **** 
   2176 PE            13051 ****               0 ****  **** 
   2177 PE            13057 ****               0 ****  **** 
   2178 PE            13063 ****               0 ****  **** 
   2179 PE            13069 ****               0 ****  **** 
   2180 PE            13075 ****               0 ****  **** 
   2181 PE            13081 ****               0 ****  **** 
   2182 PE            13087 ****               0 ****  **** 
   2183 PE            13093 ****               0 ****  **** 
   2184 PE            13099 ****               0 ****  **** 
   2185 PE            13105 ****               0 ****  **** 
   2186 PE            13111 ****               0 ****  **** 
   2187 PE            13117 ****               0 ****  **** 
   2188 PE            13123 ****               0 ****  **** 
   2189 PE            13129 ****               0 ****  **** 
   2190 PE            13135 ****               0 ****  **** 
   2191 PE            13141 ****               0 ****  **** 
   2192 PE            13147 ****               0 ****  **** 
   2193 PE            13153 ****               0 ****  **** 
   2194 PE            13159 ****               0 ****  **** 
   2195 PE            13165 ****               0 ****  **** 
   2196 PE            13171 ****               0 ****  **** 
   2197 PE            13177 ****               0 ****  **** 
   2198 PE            13183 ****               0 ****  **** 
   2199 PE            13189 ****               0 ****  **** 
   2200 PE            13195 ****               0 ****  **** 
   2201 PE            13201 ****               0 ****  **** 
   2202 PE            13207 ****               0 ****  **** 
   2203 PE            13213 ****               0 ****  **** 
   2204 PE            13219 ****               0 ****  **** 
   2205 PE            13225 ****               0 ****  **** 
   2206 PE            13231 ****               0 ****  **** 
   2207 PE            13237 ****               0 ****  **** 
   2208 PE            13243 ****               0 ****  **** 
   2209 PE            13249 ****               0 ****  **** 
   2210 PE            13255 ****               0 ****  **** 
   2211 PE            13261 ****               0 ****  **** 
   2212 PE            13267 ****               0 ****  **** 
   2213 PE            13273 ****               0 ****  **** 
   2214 PE            13279 ****               0 ****  **** 
   2215 PE            13285 ****               0 ****  **** 
   2216 PE            13291 ****               0 ****  **** 
   2217 PE            13297 ****               0 ****  **** 
   2218 PE            13303 ****               0 ****  **** 
   2219 PE            13309 ****               0 ****  **** 
   2220 PE            13315 ****               0 ****  **** 
   2221 PE            13321 ****               0 ****  **** 
   2222 PE            13327 ****               0 ****  **** 
   2223 PE            13333 ****               0 ****  **** 
   2224 PE            13339 ****               0 ****  **** 
   2225 PE            13345 ****               0 ****  **** 
   2226 PE            13351 ****               0 ****  **** 
   2227 PE            13357 ****               0 ****  **** 
   2228 PE            13363 ****               0 ****  **** 
   2229 PE            13369 ****               0 ****  **** 
   2230 PE            13375 ****               0 ****  **** 
   2231 PE            13381 ****               0 ****  **** 
   2232 PE            13387 ****               0 ****  **** 
   2233 PE            13393 ****               0 ****  **** 
   2234 PE            13399 ****               0 ****  **** 
   2235 PE            13405 ****               0 ****  **** 
   2236 PE            13411 ****               0 ****  **** 
   2237 PE            13417 ****               0 ****  **** 
   2238 PE            13423 ****               0 ****  **** 
   2239 PE            13429 ****               0 ****  **** 
   2240 PE            13435 ****               0 ****  **** 
   2241 PE            13441 ****               0 ****  **** 
   2242 PE            13447 ****               0 ****  **** 
   2243 PE            13453 ****               0 ****  **** 
   2244 PE            13459 ****               0 ****  **** 
   2245 PE            13465 ****               0 ****  **** 
   2246 PE            13471 ****               0 ****  **** 
   2247 PE            13477 ****               0 ****  **** 
   2248 PE            13483 ****               0 ****  **** 
   2249 PE            13489 ****               0 ****  **** 
   2250 PE            13495 ****               0 ****  **** 
   2251 PE            13501 ****               0 ****  **** 
   2252 PE            13507 ****               0 ****  **** 
   2253 PE            13513 ****               0 ****  **** 
   2254 PE            13519 ****               0 ****  **** 
   2255 PE            13525 ****               0 ****  **** 
   2256 PE            13531 ****               0 ****  **** 
   2257 PE            13537 ****               0 ****  **** 
   2258 PE            13543 ****               0 ****  **** 
   2259 PE            13549 ****               0 ****  **** 
   2260 PE            13555 ****               0 ****  **** 
   2261 PE            13561 ****               0 ****  **** 
   2262 PE            13567 ****               0 ****  **** 
   2263 PE            13573 ****               0 ****  **** 
   2264 PE            13579 ****               0 ****  **** 
   2265 PE            13585 ****               0 ****  **** 
   2266 PE            13591 ****               0 ****  **** 
   2267 PE            13597 ****               0 ****  **** 
   2268 PE            13603 ****               0 ****  **** 
   2269 PE            13609 ****               0 ****  **** 
   2270 PE            13615 ****               0 ****  **** 
   2271 PE            13621 ****               0 ****  **** 
   2272 PE            13627 ****               0 ****  **** 
   2273 PE            13633 ****               0 ****  **** 
   2274 PE            13639 ****               0 ****  **** 
   2275 PE            13645 ****               0 ****  **** 
   2276 PE            13651 ****               0 ****  **** 
   2277 PE            13657 ****               0 ****  **** 
   2278 PE            13663 ****               0 ****  **** 
   2279 PE            13669 ****               0 ****  **** 
   2280 PE            13675 ****               0 ****  **** 
   2281 PE            13681 ****               0 ****  **** 
   2282 PE            13687 ****               0 ****  **** 
   2283 PE            13693 ****               0 ****  **** 
   2284 PE            13699 ****               0 ****  **** 
   2285 PE            13705 ****               0 ****  **** 
   2286 PE            13711 ****               0 ****  **** 
   2287 PE            13717 ****               0 ****  **** 
   2288 PE            13723 ****               0 ****  **** 
   2289 PE            13729 ****               0 ****  **** 
   2290 PE            13735 ****               0 ****  **** 
   2291 PE            13741 ****               0 ****  **** 
   2292 PE            13747 ****               0 ****  **** 
   2293 PE            13753 ****               0 ****  **** 
   2294 PE            13759 ****               0 ****  **** 
   2295 PE            13765 ****               0 ****  **** 
   2296 PE            13771 ****               0 ****  **** 
   2297 PE            13777 ****               0 ****  **** 
   2298 PE            13783 ****               0 ****  **** 
   2299 PE            13789 ****               0 ****  **** 
   2300 PE            13795 ****               0 ****  **** 
   2301 PE            13801 ****               0 ****  **** 
   2302 PE            13807 ****               0 ****  **** 
   2303 PE            13813 ****               0 ****  **** 
   2304 PE            13819 ****               0 ****  **** 
   2305 PE            13825 ****               0 ****  **** 
   2306 PE            13831 ****               0 ****  **** 
   2307 PE            13837 ****               0 ****  **** 
   2308 PE            13843 ****               0 ****  **** 
   2309 PE            13849 ****               0 ****  **** 
   2310 PE            13855 ****               0 ****  **** 
   2311 PE            13861 ****               0 ****  **** 
   2312 PE            13867 ****               0 ****  **** 
   2313 PE            13873 ****               0 ****  **** 
   2314 PE            13879 ****               0 ****  **** 
   2315 PE            13885 ****               0 ****  **** 
   2316 PE            13891 ****               0 ****  **** 
   2317 PE            13897 ****               0 ****  **** 
   2318 PE            13903 ****               0 ****  **** 
   2319 PE            13909 ****               0 ****  **** 
   2320 PE            13915 ****               0 ****  **** 
   2321 PE            13921 ****               0 ****  **** 
   2322 PE            13927 ****               0 ****  **** 
   2323 PE            13933 ****               0 ****  **** 
   2324 PE            13939 ****               0 ****  **** 
   2325 PE            13945 ****               0 ****  **** 
   2326 PE            13951 ****               0 ****  **** 
   2327 PE            13957 ****               0 ****  **** 
   2328 PE            13963 ****               0 ****  **** 
   2329 PE            13969 ****               0 ****  **** 
   2330 PE            13975 ****               0 ****  **** 
   2331 PE            13981 ****               0 ****  **** 
   2332 PE            13987 ****               0 ****  **** 
   2333 PE            13993 ****               0 ****  **** 
   2334 PE            13999 ****               0 ****  **** 
   2335 PE            14005 ****               0 ****  **** 
   2336 PE            14011 ****               0 ****  **** 
   2337 PE            14017 ****               0 ****  **** 
   2338 PE            14023 ****               0 ****  **** 
   2339 PE            14029 ****               0 ****  **** 
   2340 PE            14035 ****               0 ****  **** 
   2341 PE            14041 ****               0 ****  **** 
   2342 PE            14047 ****               0 ****  **** 
   2343 PE            14053 ****               0 ****  **** 
   2344 PE            14059 ****               0 ****  **** 
   2345 PE            14065 ****               0 ****  **** 
   2346 PE            14071 ****               0 ****  **** 
   2347 PE            14077 ****               0 ****  **** 
   2348 PE            14083 ****               0 ****  **** 
   2349 PE            14089 ****               0 ****  **** 
   2350 PE            14095 ****               0 ****  **** 
   2351 PE            14101 ****               0 ****  **** 
   2352 PE            14107 ****               0 ****  **** 
   2353 PE            14113 ****               0 ****  **** 
   2354 PE            14119 ****               0 ****  **** 
   2355 PE            14125 ****               0 ****  **** 
   2356 PE            14131 ****               0 ****  **** 
   2357 PE            14137 ****               0 ****  **** 
   2358 PE            14143 ****               0 ****  **** 
   2359 PE            14149 ****               0 ****  **** 
   2360 PE            14155 ****               0 ****  **** 
   2361 PE            14161 ****               0 ****  **** 
   2362 PE            14167 ****               0 ****  **** 
   2363 PE            14173 ****               0 ****  **** 
   2364 PE            14179 ****               0 ****  **** 
   2365 PE            14185 ****               0 ****  **** 
   2366 PE            14191 ****               0 ****  **** 
   2367 PE            14197 ****               0 ****  **** 
   2368 PE            14203 ****               0 ****  **** 
   2369 PE            14209 ****               0 ****  **** 
   2370 PE            14215 ****               0 ****  **** 
   2371 PE            14221 ****               0 ****  **** 
   2372 PE            14227 ****               0 ****  **** 
   2373 PE            14233 ****               0 ****  **** 
   2374 PE            14239 ****               0 ****  **** 
   2375 PE            14245 ****               0 ****  **** 
   2376 PE            14251 ****               0 ****  **** 
   2377 PE            14257 ****               0 ****  **** 
   2378 PE            14263 ****               0 ****  **** 
   2379 PE            14269 ****               0 ****  **** 
   2380 PE            14275 ****               0 ****  **** 
   2381 PE            14281 ****               0 ****  **** 
   2382 PE            14287 ****               0 ****  **** 
   2383 PE            14293 ****               0 ****  **** 
   2384 PE            14299 ****               0 ****  **** 
   2385 PE            14305 ****               0 ****  **** 
   2386 PE            14311 ****               0 ****  **** 
   2387 PE            14317 ****               0 ****  **** 
   2388 PE            14323 ****               0 ****  **** 
   2389 PE            14329 ****               0 ****  **** 
   2390 PE            14335 ****               0 ****  **** 
   2391 PE            14341 ****               0 ****  **** 
   2392 PE            14347 ****               0 ****  **** 
   2393 PE            14353 ****               0 ****  **** 
   2394 PE            14359 ****               0 ****  **** 
   2395 PE            14365 ****               0 ****  **** 
   2396 PE            14371 ****               0 ****  **** 
   2397 PE            14377 ****               0 ****  **** 
   2398 PE            14383 ****               0 ****  **** 
   2399 PE            14389 ****               0 ****  **** 
   2400 PE            14395 ****               0 ****  **** 
   2401 PE            14401 ****               0 ****  **** 
   2402 PE            14407 ****               0 ****  **** 
   2403 PE            14413 ****               0 ****  **** 
   2404 PE            14419 ****               0 ****  **** 
   2405 PE            14425 ****               0 ****  **** 
   2406 PE            14431 ****               0 ****  **** 
   2407 PE            14437 ****               0 ****  **** 
   2408 PE            14443 ****               0 ****  **** 
   2409 PE            14449 ****               0 ****  **** 
   2410 PE            14455 ****               0 ****  **** 
   2411 PE            14461 ****               0 ****  **** 
   2412 PE            14467 ****               0 ****  **** 
   2413 PE            14473 ****               0 ****  **** 
   2414 PE            14479 ****               0 ****  **** 
   2415 PE            14485 ****               0 ****  **** 
   2416 PE            14491 ****               0 ****  **** 
   2417 PE            14497 ****               0 ****  **** 
   2418 PE            14503 ****               0 ****  **** 
   2419 PE            14509 ****               0 ****  **** 
   2420 PE            14515 ****               0 ****  **** 
   2421 PE            14521 ****               0 ****  **** 
   2422 PE            14527 ****               0 ****  **** 
   2423 PE            14533 ****               0 ****  **** 
   2424 PE            14539 ****               0 ****  **** 
   2425 PE            14545 ****               0 ****  **** 
   2426 PE            14551 ****               0 ****  **** 
   2427 PE            14557 ****               0 ****  **** 
   2428 PE            14563 ****               0 ****  **** 
   2429 PE            14569 ****               0 ****  **** 
   2430 PE            14575 ****               0 ****  **** 
   2431 PE            14581 ****               0 ****  **** 
   2432 PE            14587 ****               0 ****  **** 
   2433 PE            14593 ****               0 ****  **** 
   2434 PE            14599 ****               0 ****  **** 
   2435 PE            14605 ****               0 ****  **** 
   2436 PE            14611 ****               0 ****  **** 
   2437 PE            14617 ****               0 ****  **** 
   2438 PE            14623 ****               0 ****  **** 
   2439 PE            14629 ****               0 ****  **** 
   2440 PE            14635 ****               0 ****  **** 
   2441 PE            14641 ****               0 ****  **** 
   2442 PE            14647 ****               0 ****  **** 
   2443 PE            14653 ****               0 ****  **** 
   2444 PE            14659 ****               0 ****  **** 
   2445 PE            14665 ****               0 ****  **** 
   2446 PE            14671 ****               0 ****  **** 
   2447 PE            14677 ****               0 ****  **** 
   2448 PE            14683 ****               0 ****  **** 
   2449 PE            14689 ****               0 ****  **** 
   2450 PE            14695 ****               0 ****  **** 
   2451 PE            14701 ****               0 ****  **** 
   2452 PE            14707 ****               0 ****  **** 
   2453 PE            14713 ****               0 ****  **** 
   2454 PE            14719 ****               0 ****  **** 
   2455 PE            14725 ****               0 ****  **** 
   2456 PE            14731 ****               0 ****  **** 
   2457 PE            14737 ****               0 ****  **** 
   2458 PE            14743 ****               0 ****  **** 
   2459 PE            14749 ****               0 ****  **** 
   2460 PE            14755 ****               0 ****  **** 
   2461 PE            14761 ****               0 ****  **** 
   2462 PE            14767 ****               0 ****  **** 
   2463 PE            14773 ****               0 ****  **** 
   2464 PE            14779 ****               0 ****  **** 
   2465 PE            14785 ****               0 ****  **** 
   2466 PE            14791 ****               0 ****  **** 
   2467 PE            14797 ****               0 ****  **** 
   2468 PE            14803 ****               0 ****  **** 
   2469 PE            14809 ****               0 ****  **** 
   2470 PE            14815 ****               0 ****  **** 
   2471 PE            14821 ****               0 ****  **** 
   2472 PE            14827 ****               0 ****  **** 
   2473 PE            14833 ****               0 ****  **** 
   2474 PE            14839 ****               0 ****  **** 
   2475 PE            14845 ****               0 ****  **** 
   2476 PE            14851 ****               0 ****  **** 
   2477 PE            14857 ****               0 ****  **** 
   2478 PE            14863 ****               0 ****  **** 
   2479 PE            14869 ****               0 ****  **** 
   2480 PE            14875 ****               0 ****  **** 
   2481 PE            14881 ****               0 ****  **** 
   2482 PE            14887 ****               0 ****  **** 
   2483 PE            14893 ****               0 ****  **** 
   2484 PE            14899 ****               0 ****  **** 
   2485 PE            14905 ****               0 ****  **** 
   2486 PE            14911 ****               0 ****  **** 
   2487 PE            14917 ****               0 ****  **** 
   2488 PE            14923 ****               0 ****  **** 
   2489 PE            14929 ****               0 ****  **** 
   2490 PE            14935 ****               0 ****  **** 
