@<TRIPOS>MOLECULE
Cpptraj Generated mol2 file.
14850 14795  1650     0     0
SMALL
USER_CHARGES


@<TRIPOS>ATOM
      1 C2         33.6700   25.5200   60.3700 c3         1 PP      -0.006100
      2 C1         33.0000   24.2400   59.9400 c3         1 PP       0.076800
      3 CB         32.5700   24.2300   58.4600 c3         1 PP      -0.265900
      4 H21        34.6300   25.5700   59.8500 hc         1 PP       0.001900
      5 H22        33.0400   26.3700   60.0800 hc         1 PP       0.001900
      6 H1         32.0600   24.1700   60.5000 hc         1 PP       0.001800
      7 HB1        32.0400   23.3100   58.1900 hc         1 PP       0.063200
      8 HB2        31.8600   25.0600   58.3000 hc         1 PP       0.063200
      9 HB3        33.3600   24.3200   57.7100 hc         1 PP       0.063200
     10 C2         33.8700   22.8900   60.1300 c3         2 PP      -0.006100
     11 C1         34.4400   22.8500   61.6200 c3         2 PP       0.076800
     12 CB         33.3000   22.6200   62.6900 c3         2 PP      -0.265900
     13 H21        33.2300   22.0600   59.8100 hc         2 PP       0.001900
     14 H22        34.7300   23.0600   59.4700 hc         2 PP       0.001900
     15 H1         34.9700   23.7800   61.8700 hc         2 PP       0.001800
     16 HB1        33.0800   21.5500   62.7800 hc         2 PP       0.063200
     17 HB2        33.6700   22.9400   63.6700 hc         2 PP       0.063200
     18 HB3        32.3800   23.1400   62.4100 hc         2 PP       0.063200
     19 C2         35.4700   21.6300   61.7200 c3         3 PP      -0.006100
     20 C1         36.8100   21.8300   60.9700 c3         3 PP       0.076800
     21 CB         37.6000   22.9900   61.5300 c3         3 PP      -0.265900
     22 H21        35.7400   21.3300   62.7400 hc         3 PP       0.001900
     23 H22        34.9000   20.7700   61.3500 hc         3 PP       0.001900
     24 H1         36.5700   22.1300   59.9400 hc         3 PP       0.001800
     25 HB1        37.1500   23.9800   61.3500 hc         3 PP       0.063200
     26 HB2        38.0000   22.8300   62.5400 hc         3 PP       0.063200
     27 HB3        38.5200   23.0500   60.9400 hc         3 PP       0.063200
     28 C2         37.6100   20.4900   61.0300 c3         4 PP      -0.006100
     29 C1         37.5200   19.6600   59.7700 c3         4 PP       0.076800
     30 CB         38.3600   18.3600   59.7900 c3         4 PP      -0.265900
     31 H21        38.6700   20.7300   61.2300 hc         4 PP       0.001900
     32 H22        37.2500   19.8600   61.8400 hc         4 PP       0.001900
     33 H1         37.9700   20.3100   59.0000 hc         4 PP       0.001800
     34 HB1        37.7600   17.6600   60.3800 hc         4 PP       0.063200
     35 HB2        38.5400   17.9200   58.8000 hc         4 PP       0.063200
     36 HB3        39.3300   18.3800   60.3000 hc         4 PP       0.063200
     37 C2         36.0300   19.3300   59.3500 c3         5 PP      -0.006100
     38 C1         35.8300   18.3000   58.1400 c3         5 PP       0.076800
     39 CB         34.7200   17.2700   58.5800 c3         5 PP      -0.265900
     40 H21        35.6000   18.9000   60.2600 hc         5 PP       0.001900
     41 H22        35.4700   20.2300   59.0600 hc         5 PP       0.001900
     42 H1         36.6700   17.6200   58.0000 hc         5 PP       0.001800
     43 HB1        34.8700   16.8800   59.5900 hc         5 PP       0.063200
     44 HB2        33.6900   17.6000   58.4200 hc         5 PP       0.063200
     45 HB3        34.7700   16.3200   58.0300 hc         5 PP       0.063200
     46 C2         35.4900   18.9900   56.7600 c3         6 PP      -0.006100
     47 C1         36.5600   20.0100   56.2700 c3         6 PP       0.076800
     48 CB         37.7800   19.3200   55.6400 c3         6 PP      -0.265900
     49 H21        35.4300   18.1000   56.1200 hc         6 PP       0.001900
     50 H22        34.4700   19.3900   56.8000 hc         6 PP       0.001900
     51 H1         37.0200   20.5200   57.1200 hc         6 PP       0.001800
     52 HB1        37.5300   18.5900   54.8600 hc         6 PP       0.063200
     53 HB2        38.5100   20.0600   55.2900 hc         6 PP       0.063200
     54 HB3        38.3500   18.8200   56.4400 hc         6 PP       0.063200
     55 C2         35.8600   21.0000   55.2400 c3         7 PP      -0.006100
     56 C1         35.2100   22.2500   55.9200 c3         7 PP       0.076800
     57 CB         36.2200   23.1400   56.7300 c3         7 PP      -0.265900
     58 H21        36.6200   21.4100   54.5700 hc         7 PP       0.001900
     59 H22        35.1800   20.4100   54.6200 hc         7 PP       0.001900
     60 H1         34.4300   21.9200   56.6200 hc         7 PP       0.001800
     61 HB1        35.6700   23.8800   57.3300 hc         7 PP       0.063200
     62 HB2        36.6500   22.5700   57.5700 hc         7 PP       0.063200
     63 HB3        37.0200   23.6500   56.1700 hc         7 PP       0.063200
     64 C2         34.5900   23.2100   54.7900 c3         8 PP      -0.006100
     65 C1         33.3400   22.6100   54.0500 c3         8 PP       0.076800
     66 CB         32.4100   22.0600   55.1400 c3         8 PP      -0.265900
     67 H21        34.2500   24.1100   55.3300 hc         8 PP       0.001900
     68 H22        35.3900   23.5700   54.1500 hc         8 PP       0.001900
     69 H1         33.7200   21.7700   53.4500 hc         8 PP       0.001800
     70 HB1        32.8600   21.1600   55.5800 hc         8 PP       0.063200
     71 HB2        32.1900   22.7700   55.9400 hc         8 PP       0.063200
     72 HB3        31.4200   21.7800   54.7400 hc         8 PP       0.063200
     73 C2         32.6700   23.5900   53.0600 c3         9 PP      -0.006100
     74 C1         31.7500   24.8000   53.6400 c3         9 PP       0.076800
     75 CB         32.5000   25.9100   54.5100 c3         9 PP      -0.265900
     76 H21        33.5100   24.0000   52.4900 hc         9 PP       0.001900
     77 H22        31.9900   23.0000   52.4300 hc         9 PP       0.001900
     78 H1         30.9600   24.4300   54.3100 hc         9 PP       0.001800
     79 HB1        31.9400   26.8400   54.3700 hc         9 PP       0.063200
     80 HB2        32.4900   25.7200   55.5900 hc         9 PP       0.063200
     81 HB3        33.5500   26.0200   54.2400 hc         9 PP       0.063200
     82 C2         31.0600   25.4300   52.3600 c3        10 PP      -0.006100
     83 C1         32.1100   26.0500   51.3800 c3        10 PP       0.076800
     84 CB         32.4500   25.0800   50.2300 c3        10 PP      -0.265900
     85 H21        30.4100   24.6800   51.8900 hc        10 PP       0.001900
     86 H22        30.3300   26.2200   52.5600 hc        10 PP       0.001900
     87 H1         33.0600   26.2500   51.8900 hc        10 PP       0.001800
     88 HB1        31.5400   24.7400   49.7100 hc        10 PP       0.063200
     89 HB2        33.1400   25.5300   49.5000 hc        10 PP       0.063200
     90 HB3        32.9500   24.1500   50.5100 hc        10 PP       0.063200
     91 C2         31.5200   27.3900   50.7200 c3        11 PP      -0.006100
     92 C1         31.5200   28.6800   51.5500 c3        11 PP       0.076800
     93 CB         33.0300   29.0800   51.8500 c3        11 PP      -0.265900
     94 H21        32.0600   27.5600   49.7800 hc        11 PP       0.001900
     95 H22        30.5100   27.0700   50.4400 hc        11 PP       0.001900
     96 H1         31.0100   28.4200   52.4900 hc        11 PP       0.001800
     97 HB1        33.5500   29.5500   51.0100 hc        11 PP       0.063200
     98 HB2        33.0100   29.8700   52.6200 hc        11 PP       0.063200
     99 HB3        33.5800   28.2800   52.3600 hc        11 PP       0.063200
    100 C2         30.7900   29.8000   50.8200 c3        12 PP      -0.006100
    101 C1         29.2300   29.7800   51.0000 c3        12 PP       0.076800
    102 CB         28.7100   31.2100   50.8000 c3        12 PP      -0.265900
    103 H21        31.1800   30.7400   51.2500 hc        12 PP       0.001900
    104 H22        31.0800   29.8000   49.7600 hc        12 PP       0.001900
    105 H1         29.0800   29.3600   52.0000 hc        12 PP       0.001800
    106 HB1        27.6100   31.2200   50.7500 hc        12 PP       0.063200
    107 HB2        29.0400   31.9000   51.5900 hc        12 PP       0.063200
    108 HB3        29.0300   31.7000   49.8700 hc        12 PP       0.063200
    109 C2         28.4800   28.8600   50.0100 c3        13 PP      -0.006100
    110 C1         27.3600   27.9900   50.6900 c3        13 PP       0.076800
    111 CB         26.0700   28.8200   51.0200 c3        13 PP      -0.265900
    112 H21        27.9900   29.5200   49.2900 hc        13 PP       0.001900
    113 H22        29.1800   28.2900   49.3900 hc        13 PP       0.001900
    114 H1         27.8200   27.6900   51.6400 hc        13 PP       0.001800
    115 HB1        26.4000   29.6600   51.6500 hc        13 PP       0.063200
    116 HB2        25.5100   29.3300   50.2300 hc        13 PP       0.063200
    117 HB3        25.3200   28.1700   51.4800 hc        13 PP       0.063200
    118 C2         27.0900   26.6000   50.0400 c3        14 PP      -0.006100
    119 C1         26.3300   25.5300   50.9500 c3        14 PP       0.076800
    120 CB         25.9500   24.3500   49.9800 c3        14 PP      -0.265900
    121 H21        26.3800   26.7200   49.2200 hc        14 PP       0.001900
    122 H22        27.9900   26.0900   49.6700 hc        14 PP       0.001900
    123 H1         25.4300   26.0300   51.3400 hc        14 PP       0.001800
    124 HB1        25.1700   24.6300   49.2600 hc        14 PP       0.063200
    125 HB2        26.7700   24.0900   49.3100 hc        14 PP       0.063200
    126 HB3        25.7200   23.4700   50.5900 hc        14 PP       0.063200
    127 C2         27.2800   25.0200   52.1600 c3        15 PP      -0.006100
    128 C1         26.8700   25.8000   53.4900 c3        15 PP       0.076800
    129 CB         25.5200   25.2100   53.9700 c3        15 PP      -0.265900
    130 H21        27.1100   23.9700   52.4200 hc        15 PP       0.001900
    131 H22        28.3300   25.2400   51.9400 hc        15 PP       0.001900
    132 H1         26.7900   26.8600   53.2200 hc        15 PP       0.001800
    133 HB1        25.3400   25.3600   55.0400 hc        15 PP       0.063200
    134 HB2        24.6200   25.5000   53.4200 hc        15 PP       0.063200
    135 HB3        25.6000   24.1300   53.8500 hc        15 PP       0.063200
    136 C2         27.9800   25.6800   54.5800 c3        16 PP      -0.006100
    137 C1         28.1600   27.0000   55.4000 c3        16 PP       0.076800
    138 CB         28.8900   26.6900   56.7700 c3        16 PP      -0.265900
    139 H21        27.7600   24.8100   55.2100 hc        16 PP       0.001900
    140 H22        28.8700   25.4800   53.9700 hc        16 PP       0.001900
    141 H1         27.1700   27.4300   55.6200 hc        16 PP       0.001800
    142 HB1        29.6100   25.8600   56.7300 hc        16 PP       0.063200
    143 HB2        29.3700   27.5500   57.2600 hc        16 PP       0.063200
    144 HB3        28.3000   26.1900   57.5500 hc        16 PP       0.063200
    145 C2         28.9100   28.0600   54.5700 c3        17 PP      -0.006100
    146 C1         28.5900   29.6100   54.9900 c3        17 PP       0.076800
    147 CB         29.7100   30.4700   54.5800 c3        17 PP      -0.265900
    148 H21        29.9700   27.8100   54.7300 hc        17 PP       0.001900
    149 H22        28.9600   27.8700   53.4900 hc        17 PP       0.001900
    150 H1         28.5100   29.7100   56.0800 hc        17 PP       0.001800
    151 HB1        29.8900   30.4400   53.4900 hc        17 PP       0.063200
    152 HB2        29.6500   31.5200   54.8800 hc        17 PP       0.063200
    153 HB3        30.6700   30.2200   55.0400 hc        17 PP       0.063200
    154 C2         27.1800   30.0200   54.4900 c3        18 PP      -0.006100
    155 C1         26.1900   30.3500   55.6100 c3        18 PP       0.076800
    156 CB         26.6800   31.6100   56.3900 c3        18 PP      -0.265900
    157 H21        27.1400   30.8800   53.8100 hc        18 PP       0.001900
    158 H22        26.7000   29.1400   54.0400 hc        18 PP       0.001900
    159 H1         26.2500   29.5200   56.3100 hc        18 PP       0.001800
    160 HB1        25.9400   31.9100   57.1500 hc        18 PP       0.063200
    161 HB2        27.6300   31.5100   56.9300 hc        18 PP       0.063200
    162 HB3        26.9500   32.3700   55.6500 hc        18 PP       0.063200
    163 C2         24.7400   30.5000   55.0900 c3        19 PP      -0.006100
    164 C1         24.0500   29.2800   54.5200 c3        19 PP       0.076800
    165 CB         23.9000   28.0300   55.5000 c3        19 PP      -0.265900
    166 H21        24.1600   30.8000   55.9700 hc        19 PP       0.001900
    167 H22        24.6200   31.3300   54.3800 hc        19 PP       0.001900
    168 H1         24.6100   28.9100   53.6500 hc        19 PP       0.001800
    169 HB1        23.7300   27.1300   54.9100 hc        19 PP       0.063200
    170 HB2        24.8900   27.8500   55.9300 hc        19 PP       0.063200
    171 HB3        23.1200   28.1900   56.2600 hc        19 PP       0.063200
    172 C2         22.6500   29.6900   53.9700 c3        20 PP      -0.006100
    173 C1         21.6700   28.6500   53.2800 c3        20 PP       0.076800
    174 CB         20.2600   29.2000   52.9400 c3        20 PP      -0.265900
    175 H21        22.1800   30.0900   54.8700 hc        20 PP       0.001900
    176 H22        22.7200   30.5100   53.2400 hc        20 PP       0.001900
    177 H1         21.3900   27.9300   54.0700 hc        20 PP       0.001800
    178 HB1        20.5000   29.8300   52.0700 hc        20 PP       0.063200
    179 HB2        19.6800   28.3400   52.5900 hc        20 PP       0.063200
    180 HB3        19.8400   29.8000   53.7600 hc        20 PP       0.063200
    181 C2         22.2600   27.9100   52.1300 c3        21 PP      -0.006100
    182 C1         21.3700   26.9200   51.3000 c3        21 PP       0.076800
    183 CB         22.1800   26.4500   50.1100 c3        21 PP      -0.265900
    184 H21        22.6900   28.6700   51.4700 hc        21 PP       0.001900
    185 H22        23.1500   27.4200   52.5500 hc        21 PP       0.001900
    186 H1         20.5300   27.5100   50.9100 hc        21 PP       0.001800
    187 HB1        22.6400   27.2200   49.4700 hc        21 PP       0.063200
    188 HB2        23.0900   25.8800   50.3400 hc        21 PP       0.063200
    189 HB3        21.6300   25.8300   49.3800 hc        21 PP       0.063200
    190 C2         20.7200   25.6400   52.0800 c3        22 PP      -0.006100
    191 C1         21.6000   24.5200   52.5600 c3        22 PP       0.076800
    192 CB         22.0900   24.7900   54.0200 c3        22 PP      -0.265900
    193 H21        20.0600   25.9300   52.9000 hc        22 PP       0.001900
    194 H22        19.9700   25.2500   51.3800 hc        22 PP       0.001900
    195 H1         22.4800   24.4500   51.8900 hc        22 PP       0.001800
    196 HB1        22.1400   25.8800   54.1300 hc        22 PP       0.063200
    197 HB2        21.3400   24.3100   54.6600 hc        22 PP       0.063200
    198 HB3        23.0500   24.3500   54.3000 hc        22 PP       0.063200
    199 C2         21.0100   23.0700   52.4900 c3        23 PP      -0.006100
    200 C1         20.8100   22.4300   51.0600 c3        23 PP       0.076800
    201 CB         22.1800   22.0000   50.3900 c3        23 PP      -0.265900
    202 H21        21.5100   22.4200   53.2100 hc        23 PP       0.001900
    203 H22        20.0000   23.1800   52.9100 hc        23 PP       0.001900
    204 H1         20.4000   23.1500   50.3400 hc        23 PP       0.001800
    205 HB1        21.9500   21.4600   49.4700 hc        23 PP       0.063200
    206 HB2        22.8800   22.8300   50.1900 hc        23 PP       0.063200
    207 HB3        22.8400   21.4700   51.0900 hc        23 PP       0.063200
    208 C2         19.8800   21.1800   51.0700 c3        24 PP      -0.006100
    209 C1         18.4200   21.5400   51.1500 c3        24 PP       0.076800
    210 CB         17.8900   22.2700   49.8600 c3        24 PP      -0.265900
    211 H21        20.1300   20.5900   50.1800 hc        24 PP       0.001900
    212 H22        20.1000   20.5300   51.9200 hc        24 PP       0.001900
    213 H1         18.1200   22.2000   51.9700 hc        24 PP       0.001800
    214 HB1        16.8700   22.5800   50.0800 hc        24 PP       0.063200
    215 HB2        18.4200   23.2100   49.6900 hc        24 PP       0.063200
    216 HB3        17.9500   21.6400   48.9700 hc        24 PP       0.063200
    217 C2         17.6500   20.2100   51.3600 c3        25 PP      -0.006100
    218 C1         17.6100   19.5900   52.8600 c3        25 PP       0.076800
    219 CB         16.9100   20.5700   53.7800 c3        25 PP      -0.265900
    220 H21        16.5900   20.3500   51.1100 hc        25 PP       0.001900
    221 H22        18.0400   19.4400   50.6800 hc        25 PP       0.001900
    222 H1         18.6700   19.4800   53.1200 hc        25 PP       0.001800
    223 HB1        15.8700   20.6300   53.4300 hc        25 PP       0.063200
    224 HB2        16.9200   20.2500   54.8300 hc        25 PP       0.063200
    225 HB3        17.3500   21.5700   53.8300 hc        25 PP       0.063200
    226 C2         16.9500   18.1800   52.8900 c3        26 PP      -0.006100
    227 C1         17.6500   17.0100   52.1700 c3        26 PP       0.076800
    228 CB         18.8300   16.4100   53.0100 c3        26 PP      -0.265900
    229 H21        16.7700   17.8700   53.9300 hc        26 PP       0.001900
    230 H22        15.9700   18.4300   52.4500 hc        26 PP       0.001900
    231 H1         18.0400   17.3900   51.2100 hc        26 PP       0.001800
    232 HB1        18.4800   16.3500   54.0400 hc        26 PP       0.063200
    233 HB2        19.0000   15.3900   52.6600 hc        26 PP       0.063200
    234 HB3        19.7400   17.0200   52.9100 hc        26 PP       0.063200
    235 C2         16.7100   15.8100   51.9100 c3        27 PP      -0.006100
    236 C1         15.4200   16.0500   51.1200 c3        27 PP       0.076800
    237 CB         15.6800   16.8500   49.8400 c3        27 PP      -0.265900
    238 H21        17.3500   15.0700   51.4300 hc        27 PP       0.001900
    239 H22        16.3000   15.5000   52.8800 hc        27 PP       0.001900
    240 H1         14.7800   16.6700   51.7600 hc        27 PP       0.001800
    241 HB1        15.9600   16.1700   49.0300 hc        27 PP       0.063200
    242 HB2        14.7700   17.3500   49.4900 hc        27 PP       0.063200
    243 HB3        16.4800   17.5800   50.0300 hc        27 PP       0.063200
    244 C2         14.6500   14.7400   50.7200 c3        28 PP      -0.006100
    245 C1         13.2100   14.8400   50.1800 c3        28 PP       0.076800
    246 CB         12.6800   13.3600   49.9600 c3        28 PP      -0.265900
    247 H21        15.2300   14.0000   50.1600 hc        28 PP       0.001900
    248 H22        14.4300   14.2600   51.6800 hc        28 PP       0.001900
    249 H1         13.2200   15.1800   49.1300 hc        28 PP       0.001800
    250 HB1        11.6300   13.3900   49.6200 hc        28 PP       0.063200
    251 HB2        13.4200   12.7200   49.4500 hc        28 PP       0.063200
    252 HB3        12.5100   12.9000   50.9400 hc        28 PP       0.063200
    253 C2         12.2400   15.7700   50.9900 c3        29 PP      -0.006100
    254 C1         12.1800   15.5200   52.5500 c3        29 PP       0.076800
    255 CB         11.8600   16.8800   53.2500 c3        29 PP      -0.265900
    256 H21        12.5100   16.8000   50.7000 hc        29 PP       0.001900
    257 H22        11.2100   15.6700   50.6200 hc        29 PP       0.001900
    258 H1         13.1400   15.2100   52.9800 hc        29 PP       0.001800
    259 HB1        12.7500   17.5200   53.2300 hc        29 PP       0.063200
    260 HB2        10.9500   17.3500   52.8500 hc        29 PP       0.063200
    261 HB3        11.5300   16.8000   54.3000 hc        29 PP       0.063200
    262 C2         11.0600   14.4700   52.9400 c3        30 PP      -0.006100
    263 C1         11.1100   13.9600   54.3600 c3        30 PP       0.076800
    264 CB         10.1300   12.8800   54.8000 c3        30 PP      -0.265900
    265 H21        11.0400   13.5500   52.3400 hc        30 PP       0.001900
    266 H22        10.0700   14.9300   52.8300 hc        30 PP       0.001900
    267 H1         12.1400   13.5900   54.4500 hc        30 PP       0.001800
    268 HB1         9.5800   13.2600   55.6800 hc        30 PP       0.063200
    269 HB2         9.4700   12.6400   53.9500 hc        30 PP       0.063200
    270 HB3        10.6600   12.0300   55.2200 hc        30 PP       0.063200
    271 C2         51.8600   43.9100   55.7300 c3        31 PP      -0.006100
    272 C1         51.0100   43.2300   56.7800 c3        31 PP       0.076800
    273 CB         51.8700   42.8100   58.0200 c3        31 PP      -0.265900
    274 H21        51.2500   44.3200   54.9200 hc        31 PP       0.001900
    275 H22        52.4500   44.8000   56.0000 hc        31 PP       0.001900
    276 H1         50.6600   42.3000   56.3200 hc        31 PP       0.001800
    277 HB1        52.6400   42.1300   57.6500 hc        31 PP       0.063200
    278 HB2        52.2100   43.7700   58.4500 hc        31 PP       0.063200
    279 HB3        51.2300   42.2600   58.7200 hc        31 PP       0.063200
    280 C2         49.7100   43.9800   57.1300 c3        32 PP      -0.006100
    281 C1         48.4800   43.6300   56.3400 c3        32 PP       0.076800
    282 CB         47.8500   42.2100   56.6200 c3        32 PP      -0.265900
    283 H21        49.5000   43.6300   58.1500 hc        32 PP       0.001900
    284 H22        49.9300   45.0500   57.1300 hc        32 PP       0.001900
    285 H1         48.7500   43.6200   55.2800 hc        32 PP       0.001800
    286 HB1        48.6200   41.4400   56.4900 hc        32 PP       0.063200
    287 HB2        47.7700   42.2300   57.7100 hc        32 PP       0.063200
    288 HB3        46.9400   41.9300   56.0800 hc        32 PP       0.063200
    289 C2         47.4600   44.7400   56.6100 c3        33 PP      -0.006100
    290 C1         47.0000   45.5200   55.3300 c3        33 PP       0.076800
    291 CB         46.3700   44.6400   54.1600 c3        33 PP      -0.265900
    292 H21        46.5700   44.3500   57.1200 hc        33 PP       0.001900
    293 H22        47.9100   45.4700   57.2900 hc        33 PP       0.001900
    294 H1         47.8200   46.0400   54.8100 hc        33 PP       0.001800
    295 HB1        46.4100   45.1200   53.1800 hc        33 PP       0.063200
    296 HB2        46.8500   43.6600   54.0600 hc        33 PP       0.063200
    297 HB3        45.2900   44.4900   54.2700 hc        33 PP       0.063200
    298 C2         46.0300   46.6900   55.7100 c3        34 PP      -0.006100
    299 C1         46.8000   47.9400   56.3500 c3        34 PP       0.076800
    300 CB         47.4900   48.7600   55.1900 c3        34 PP      -0.265900
    301 H21        45.6300   46.9800   54.7400 hc        34 PP       0.001900
    302 H22        45.2900   46.3200   56.4200 hc        34 PP       0.001900
    303 H1         47.6500   47.6100   56.9600 hc        34 PP       0.001800
    304 HB1        48.4800   49.1600   55.4500 hc        34 PP       0.063200
    305 HB2        47.5700   48.2400   54.2300 hc        34 PP       0.063200
    306 HB3        46.9400   49.7100   55.0800 hc        34 PP       0.063200
    307 C2         45.8100   48.8700   57.1200 c3        35 PP      -0.006100
    308 C1         45.6900   48.6400   58.6300 c3        35 PP       0.076800
    309 CB         44.9100   47.3300   58.9300 c3        35 PP      -0.265900
    310 H21        46.0700   49.9300   57.0600 hc        35 PP       0.001900
    311 H22        44.8500   48.8000   56.6000 hc        35 PP       0.001900
    312 H1         45.0800   49.4700   59.0200 hc        35 PP       0.001800
    313 HB1        44.0800   47.0400   58.2800 hc        35 PP       0.063200
    314 HB2        45.5900   46.4700   58.8900 hc        35 PP       0.063200
    315 HB3        44.4500   47.3600   59.9300 hc        35 PP       0.063200
    316 C2         46.9900   48.6500   59.5100 c3        36 PP      -0.006100
    317 C1         47.6300   50.1200   59.7400 c3        36 PP       0.076800
    318 CB         46.9800   50.9400   60.8000 c3        36 PP      -0.265900
    319 H21        46.8500   48.2200   60.5100 hc        36 PP       0.001900
    320 H22        47.7400   48.0100   59.0200 hc        36 PP       0.001900
    321 H1         47.4900   50.6800   58.8100 hc        36 PP       0.001800
    322 HB1        45.9600   51.2100   60.4900 hc        36 PP       0.063200
    323 HB2        47.0300   50.4800   61.8000 hc        36 PP       0.063200
    324 HB3        47.5800   51.8500   60.9100 hc        36 PP       0.063200
    325 C2         49.1700   49.9500   60.0600 c3        37 PP      -0.006100
    326 C1         50.0700   49.8700   58.7900 c3        37 PP       0.076800
    327 CB         50.2100   51.1600   58.0200 c3        37 PP      -0.265900
    328 H21        49.5100   50.8000   60.6700 hc        37 PP       0.001900
    329 H22        49.1600   49.0500   60.6900 hc        37 PP       0.001900
    330 H1         49.5700   49.2300   58.0400 hc        37 PP       0.001800
    331 HB1        50.8600   51.8700   58.5500 hc        37 PP       0.063200
    332 HB2        50.5900   50.9600   57.0100 hc        37 PP       0.063200
    333 HB3        49.2600   51.6400   57.7500 hc        37 PP       0.063200
    334 C2         51.4900   49.3200   59.1300 c3        38 PP      -0.006100
    335 C1         51.6400   47.7900   58.8300 c3        38 PP       0.076800
    336 CB         51.5100   47.3100   57.4100 c3        38 PP      -0.265900
    337 H21        52.2300   49.8000   58.4800 hc        38 PP       0.001900
    338 H22        51.7500   49.6200   60.1600 hc        38 PP       0.001900
    339 H1         50.8200   47.2000   59.2600 hc        38 PP       0.001800
    340 HB1        50.4500   47.2900   57.1400 hc        38 PP       0.063200
    341 HB2        51.9500   48.0800   56.7700 hc        38 PP       0.063200
    342 HB3        51.9800   46.3300   57.2700 hc        38 PP       0.063200
    343 C2         52.9900   47.2600   59.4500 c3        39 PP      -0.006100
    344 C1         52.9900   47.3200   61.0900 c3        39 PP       0.076800
    345 CB         51.7100   46.7200   61.7100 c3        39 PP      -0.265900
    346 H21        53.1500   46.2100   59.1800 hc        39 PP       0.001900
    347 H22        53.8200   47.7700   58.9700 hc        39 PP       0.001900
    348 H1         52.9500   48.3400   61.4800 hc        39 PP       0.001800
    349 HB1        50.8800   47.4300   61.5800 hc        39 PP       0.063200
    350 HB2        51.4400   45.7800   61.2200 hc        39 PP       0.063200
    351 HB3        51.8800   46.6400   62.7900 hc        39 PP       0.063200
    352 C2         54.2700   46.6600   61.7100 c3        40 PP      -0.006100
    353 C1         55.6200   47.1800   61.1800 c3        40 PP       0.076800
    354 CB         55.7800   48.7000   61.5800 c3        40 PP      -0.265900
    355 H21        54.1400   46.7200   62.7900 hc        40 PP       0.001900
    356 H22        54.2900   45.5900   61.4400 hc        40 PP       0.001900
    357 H1         55.6000   47.1600   60.0800 hc        40 PP       0.001800
    358 HB1        56.0000   48.7500   62.6600 hc        40 PP       0.063200
    359 HB2        56.5700   49.2300   61.0300 hc        40 PP       0.063200
    360 HB3        54.8500   49.2100   61.3300 hc        40 PP       0.063200
    361 C2         56.8500   46.3500   61.5800 c3        41 PP      -0.006100
    362 C1         57.9600   46.5800   60.6800 c3        41 PP       0.076800
    363 CB         59.0700   47.2200   61.4500 c3        41 PP      -0.265900
    364 H21        57.1400   46.5100   62.6200 hc        41 PP       0.001900
    365 H22        56.5200   45.3000   61.5000 hc        41 PP       0.001900
    366 H1         57.6700   47.2900   59.8900 hc        41 PP       0.001800
    367 HB1        58.7000   47.9600   62.1700 hc        41 PP       0.063200
    368 HB2        59.6700   46.5100   62.0300 hc        41 PP       0.063200
    369 HB3        59.8500   47.7300   60.8700 hc        41 PP       0.063200
    370 C2         58.4000   45.3000   59.9200 c3        42 PP      -0.006100
    371 C1         57.5600   44.9600   58.7000 c3        42 PP       0.076800
    372 CB         58.3300   45.3600   57.4700 c3        42 PP      -0.265900
    373 H21        59.4300   45.3800   59.5700 hc        42 PP       0.001900
    374 H22        58.3500   44.4800   60.6500 hc        42 PP       0.001900
    375 H1         56.6000   45.4500   58.8800 hc        42 PP       0.001800
    376 HB1        58.7500   46.3700   57.5700 hc        42 PP       0.063200
    377 HB2        59.0300   44.6000   57.1200 hc        42 PP       0.063200
    378 HB3        57.5100   45.4200   56.7400 hc        42 PP       0.063200
    379 C2         57.2100   43.3900   58.7900 c3        43 PP      -0.006100
    380 C1         55.8500   42.8900   58.0900 c3        43 PP       0.076800
    381 CB         55.8900   42.9500   56.5200 c3        43 PP      -0.265900
    382 H21        58.0400   42.7200   58.5400 hc        43 PP       0.001900
    383 H22        57.0000   43.2100   59.8500 hc        43 PP       0.001900
    384 H1         55.0700   43.6200   58.3700 hc        43 PP       0.001800
    385 HB1        56.7600   43.4900   56.1300 hc        43 PP       0.063200
    386 HB2        55.8600   41.9500   56.0700 hc        43 PP       0.063200
    387 HB3        54.9500   43.4100   56.1900 hc        43 PP       0.063200
    388 C2         55.4500   41.4600   58.5900 c3        44 PP      -0.006100
    389 C1         55.1000   41.2900   60.1600 c3        44 PP       0.076800
    390 CB         54.3400   42.5000   60.8000 c3        44 PP      -0.265900
    391 H21        54.6200   41.0200   58.0200 hc        44 PP       0.001900
    392 H22        56.2500   40.7600   58.3200 hc        44 PP       0.001900
    393 H1         56.1200   41.2400   60.5600 hc        44 PP       0.001800
    394 HB1        53.4900   42.8100   60.1800 hc        44 PP       0.063200
    395 HB2        53.8200   42.3000   61.7500 hc        44 PP       0.063200
    396 HB3        55.0600   43.3000   61.0100 hc        44 PP       0.063200
    397 C2         54.2800   39.9000   60.4600 c3        45 PP      -0.006100
    398 C1         54.7000   39.3500   61.8200 c3        45 PP       0.076800
    399 CB         53.5100   38.6100   62.4900 c3        45 PP      -0.265900
    400 H21        53.2000   40.0900   60.4600 hc        45 PP       0.001900
    401 H22        54.4800   39.0900   59.7400 hc        45 PP       0.001900
    402 H1         54.9900   40.2400   62.4000 hc        45 PP       0.001800
    403 HB1        53.1100   37.7100   62.0000 hc        45 PP       0.063200
    404 HB2        53.7700   38.3500   63.5200 hc        45 PP       0.063200
    405 HB3        52.7200   39.3700   62.5300 hc        45 PP       0.063200
    406 C2         55.9100   38.3600   61.7600 c3        46 PP      -0.006100
    407 C1         56.5900   37.9100   63.1500 c3        46 PP       0.076800
    408 CB         57.6900   36.8600   63.0100 c3        46 PP      -0.265900
    409 H21        55.6500   37.4700   61.1700 hc        46 PP       0.001900
    410 H22        56.7600   38.7200   61.1800 hc        46 PP       0.001900
    411 H1         55.8000   37.3700   63.7000 hc        46 PP       0.001800
    412 HB1        58.0300   36.5200   64.0000 hc        46 PP       0.063200
    413 HB2        57.4000   35.9200   62.5100 hc        46 PP       0.063200
    414 HB3        58.6400   37.1800   62.5500 hc        46 PP       0.063200
    415 C2         57.0200   39.2000   64.0200 c3        47 PP      -0.006100
    416 C1         56.4000   39.1300   65.4600 c3        47 PP       0.076800
    417 CB         57.1200   38.0800   66.2600 c3        47 PP      -0.265900
    418 H21        58.1100   39.1800   63.9900 hc        47 PP       0.001900
    419 H22        56.7300   40.1200   63.4900 hc        47 PP       0.001900
    420 H1         55.3700   38.7500   65.4000 hc        47 PP       0.001800
    421 HB1        56.8800   37.0300   66.0600 hc        47 PP       0.063200
    422 HB2        58.2200   38.1000   66.1700 hc        47 PP       0.063200
    423 HB3        56.9500   38.2400   67.3300 hc        47 PP       0.063200
    424 C2         56.4200   40.5200   66.1900 c3        48 PP      -0.006100
    425 C1         55.4100   41.5000   65.4700 c3        48 PP       0.076800
    426 CB         53.9400   41.1700   65.6900 c3        48 PP      -0.265900
    427 H21        56.0100   40.3400   67.1900 hc        48 PP       0.001900
    428 H22        57.4500   40.9000   66.2300 hc        48 PP       0.001900
    429 H1         55.5400   41.5400   64.3900 hc        48 PP       0.001800
    430 HB1        53.8500   41.1700   66.7800 hc        48 PP       0.063200
    431 HB2        53.3500   41.9600   65.2200 hc        48 PP       0.063200
    432 HB3        53.6700   40.2200   65.2100 hc        48 PP       0.063200
    433 C2         55.7100   42.8400   65.9700 c3        49 PP      -0.006100
    434 C1         56.9800   43.5100   65.4200 c3        49 PP       0.076800
    435 CB         56.9200   43.8600   63.9000 c3        49 PP      -0.265900
    436 H21        54.9300   43.5500   65.6400 hc        49 PP       0.001900
    437 H22        55.6600   42.9500   67.0600 hc        49 PP       0.001900
    438 H1         57.7800   42.7600   65.5000 hc        49 PP       0.001800
    439 HB1        56.4900   44.8700   63.8500 hc        49 PP       0.063200
    440 HB2        57.8500   43.9100   63.3300 hc        49 PP       0.063200
    441 HB3        56.2900   43.1900   63.2900 hc        49 PP       0.063200
    442 C2         57.4000   44.6900   66.4200 c3        50 PP      -0.006100
    443 C1         58.9200   45.0300   66.3200 c3        50 PP       0.076800
    444 CB         59.8600   43.7700   66.2000 c3        50 PP      -0.265900
    445 H21        56.7800   45.5700   66.2000 hc        50 PP       0.001900
    446 H22        57.2700   44.5200   67.5000 hc        50 PP       0.001900
    447 H1         59.1800   45.6000   67.2300 hc        50 PP       0.001800
    448 HB1        59.9000   43.3800   65.1700 hc        50 PP       0.063200
    449 HB2        60.9000   44.0300   66.4300 hc        50 PP       0.063200
    450 HB3        59.6200   42.9200   66.8500 hc        50 PP       0.063200
    451 C2         59.1700   46.0000   65.1200 c3        51 PP      -0.006100
    452 C1         59.8100   47.3500   65.4300 c3        51 PP       0.076800
    453 CB         59.1600   48.1100   66.5600 c3        51 PP      -0.265900
    454 H21        59.8100   45.4900   64.3800 hc        51 PP       0.001900
    455 H22        58.2700   46.1400   64.5100 hc        51 PP       0.001900
    456 H1         59.8000   48.0400   64.5700 hc        51 PP       0.001800
    457 HB1        59.3200   49.2000   66.5400 hc        51 PP       0.063200
    458 HB2        58.0800   47.9400   66.5000 hc        51 PP       0.063200
    459 HB3        59.4500   47.7000   67.5400 hc        51 PP       0.063200
    460 C2         61.2500   47.0800   65.7900 c3        52 PP      -0.006100
    461 C1         62.1300   48.3600   66.0600 c3        52 PP       0.076800
    462 CB         63.5000   48.1000   66.7900 c3        52 PP      -0.265900
    463 H21        61.1700   46.4400   66.6800 hc        52 PP       0.001900
    464 H22        61.8400   46.4200   65.1500 hc        52 PP       0.001900
    465 H1         61.6900   48.9800   66.8600 hc        52 PP       0.001800
    466 HB1        64.2500   47.6700   66.1000 hc        52 PP       0.063200
    467 HB2        63.9200   49.0800   67.0600 hc        52 PP       0.063200
    468 HB3        63.4100   47.4400   67.6600 hc        52 PP       0.063200
    469 C2         62.3000   49.1600   64.7800 c3        53 PP      -0.006100
    470 C1         61.4900   50.4600   64.7300 c3        53 PP       0.076800
    471 CB         61.7300   51.5500   65.8200 c3        53 PP      -0.265900
    472 H21        63.3600   49.2700   64.5500 hc        53 PP       0.001900
    473 H22        62.0400   48.6000   63.8800 hc        53 PP       0.001900
    474 H1         60.4400   50.1500   64.7700 hc        53 PP       0.001800
    475 HB1        62.7700   51.5100   66.1500 hc        53 PP       0.063200
    476 HB2        61.7100   52.5800   65.4600 hc        53 PP       0.063200
    477 HB3        61.1200   51.5000   66.7300 hc        53 PP       0.063200
    478 C2         61.7600   51.0900   63.3200 c3        54 PP      -0.006100
    479 C1         60.6500   52.1200   62.9600 c3        54 PP       0.076800
    480 CB         60.9500   52.7200   61.5800 c3        54 PP      -0.265900
    481 H21        62.7200   51.5900   63.4600 hc        54 PP       0.001900
    482 H22        62.0100   50.3900   62.5200 hc        54 PP       0.001900
    483 H1         60.6900   53.0000   63.6200 hc        54 PP       0.001800
    484 HB1        62.0000   53.0500   61.5300 hc        54 PP       0.063200
    485 HB2        60.8800   51.9800   60.7700 hc        54 PP       0.063200
    486 HB3        60.2800   53.5500   61.3600 hc        54 PP       0.063200
    487 C2         59.2100   51.5900   62.8500 c3        55 PP      -0.006100
    488 C1         58.1500   52.7400   62.8900 c3        55 PP       0.076800
    489 CB         56.9300   52.2700   62.0600 c3        55 PP      -0.265900
    490 H21        59.0400   51.1200   61.8800 hc        55 PP       0.001900
    491 H22        58.8900   50.8700   63.6200 hc        55 PP       0.001900
    492 H1         58.4200   53.7000   62.4300 hc        55 PP       0.001800
    493 HB1        55.9800   52.8200   62.1300 hc        55 PP       0.063200
    494 HB2        57.2700   52.4700   61.0400 hc        55 PP       0.063200
    495 HB3        56.6400   51.2400   62.2800 hc        55 PP       0.063200
    496 C2         57.4800   53.1800   64.2700 c3        56 PP      -0.006100
    497 C1         56.7100   52.0500   65.0000 c3        56 PP       0.076800
    498 CB         57.5200   51.6400   66.3300 c3        56 PP      -0.265900
    499 H21        58.2600   53.5500   64.9500 hc        56 PP       0.001900
    500 H22        56.7800   54.0100   64.1100 hc        56 PP       0.001900
    501 H1         56.7400   51.1200   64.4300 hc        56 PP       0.001800
    502 HB1        58.5800   51.5300   66.0500 hc        56 PP       0.063200
    503 HB2        57.3800   52.3900   67.1200 hc        56 PP       0.063200
    504 HB3        57.2700   50.6300   66.6900 hc        56 PP       0.063200
    505 C2         55.2100   52.4400   65.4400 c3        57 PP      -0.006100
    506 C1         54.3600   51.2700   65.9500 c3        57 PP       0.076800
    507 CB         53.0200   51.8400   66.3400 c3        57 PP      -0.265900
    508 H21        55.2800   53.2100   66.2100 hc        57 PP       0.001900
    509 H22        54.6600   52.9200   64.6300 hc        57 PP       0.001900
    510 H1         54.9200   50.8800   66.8100 hc        57 PP       0.001800
    511 HB1        53.0900   52.6900   67.0300 hc        57 PP       0.063200
    512 HB2        52.6000   52.2700   65.4300 hc        57 PP       0.063200
    513 HB3        52.2300   51.1600   66.6900 hc        57 PP       0.063200
    514 C2         54.0600   50.2000   64.8600 c3        58 PP      -0.006100
    515 C1         54.1200   48.6200   65.3800 c3        58 PP       0.076800
    516 CB         55.4000   48.4500   66.2100 c3        58 PP      -0.265900
    517 H21        53.1600   50.3700   64.2600 hc        58 PP       0.001900
    518 H22        54.8400   50.3000   64.1000 hc        58 PP       0.001900
    519 H1         54.2200   48.0100   64.4800 hc        58 PP       0.001800
    520 HB1        55.3400   48.7700   67.2600 hc        58 PP       0.063200
    521 HB2        55.6000   47.3700   66.1800 hc        58 PP       0.063200
    522 HB3        56.2700   48.9000   65.7100 hc        58 PP       0.063200
    523 C2         52.8400   48.2300   66.2000 c3        59 PP      -0.006100
    524 C1         52.3600   46.7500   65.9000 c3        59 PP       0.076800
    525 CB         53.4500   45.7200   66.3700 c3        59 PP      -0.265900
    526 H21        52.9700   48.3900   67.2800 hc        59 PP       0.001900
    527 H22        52.0000   48.8600   65.8800 hc        59 PP       0.001900
    528 H1         52.2600   46.6600   64.8100 hc        59 PP       0.001800
    529 HB1        54.2800   45.5800   65.6600 hc        59 PP       0.063200
    530 HB2        53.8300   46.1100   67.3100 hc        59 PP       0.063200
    531 HB3        52.9400   44.7800   66.6100 hc        59 PP       0.063200
    532 C2         51.0100   46.5100   66.6000 c3        60 PP      -0.006100
    533 C1         50.3600   45.1500   66.3100 c3        60 PP       0.076800
    534 CB         49.9600   44.9600   64.8800 c3        60 PP      -0.265900
    535 H21        50.2200   47.2600   66.4300 hc        60 PP       0.001900
    536 H22        51.2000   46.5400   67.6800 hc        60 PP       0.001900
    537 H1         49.4600   45.1200   66.9300 hc        60 PP       0.001800
    538 HB1        50.8800   44.8000   64.3000 hc        60 PP       0.063200
    539 HB2        49.2900   44.0900   64.9400 hc        60 PP       0.063200
    540 HB3        49.3700   45.7700   64.4400 hc        60 PP       0.063200
    541 C2         68.8800   58.7900   51.8500 c3        61 PP      -0.006100
    542 C1         68.8300   59.5600   50.5500 c3        61 PP       0.076800
    543 CB         67.9000   60.7700   50.5300 c3        61 PP      -0.265900
    544 H21        69.0900   59.3500   52.7700 hc        61 PP       0.001900
    545 H22        68.0300   58.1200   51.9800 hc        61 PP       0.001900
    546 H1         68.5200   58.8700   49.7500 hc        61 PP       0.001800
    547 HB1        66.8700   60.5700   50.8500 hc        61 PP       0.063200
    548 HB2        68.2300   61.4700   51.3000 hc        61 PP       0.063200
    549 HB3        67.8300   61.2900   49.5700 hc        61 PP       0.063200
    550 C2         70.2300   59.9700   50.1200 c3        62 PP      -0.006100
    551 C1         71.4100   59.0600   50.4100 c3        62 PP       0.076800
    552 CB         71.3600   57.6400   49.9400 c3        62 PP      -0.265900
    553 H21        70.2600   60.2300   49.0500 hc        62 PP       0.001900
    554 H22        70.4200   60.9200   50.6500 hc        62 PP       0.001900
    555 H1         71.4300   58.9300   51.4900 hc        62 PP       0.001800
    556 HB1        72.1100   57.0300   50.4600 hc        62 PP       0.063200
    557 HB2        70.3700   57.1500   49.9200 hc        62 PP       0.063200
    558 HB3        71.7400   57.6900   48.9100 hc        62 PP       0.063200
    559 C2         72.6800   59.7900   49.8900 c3        63 PP      -0.006100
    560 C1         73.3200   61.0200   50.7400 c3        63 PP       0.076800
    561 CB         73.4000   60.6800   52.2700 c3        63 PP      -0.265900
    562 H21        73.4300   59.0000   49.8300 hc        63 PP       0.001900
    563 H22        72.5400   60.1300   48.8500 hc        63 PP       0.001900
    564 H1         72.6900   61.8900   50.5000 hc        63 PP       0.001800
    565 HB1        72.3700   60.5400   52.6200 hc        63 PP       0.063200
    566 HB2        74.0200   59.8000   52.4700 hc        63 PP       0.063200
    567 HB3        73.8900   61.4700   52.8800 hc        63 PP       0.063200
    568 C2         74.7600   61.2600   50.2700 c3        64 PP      -0.006100
    569 C1         75.4000   62.5800   50.6800 c3        64 PP       0.076800
    570 CB         76.9500   62.3800   50.5600 c3        64 PP      -0.265900
    571 H21        75.4300   60.4100   50.4800 hc        64 PP       0.001900
    572 H22        74.6200   61.2400   49.1800 hc        64 PP       0.001900
    573 H1         75.1900   62.7300   51.7500 hc        64 PP       0.001800
    574 HB1        77.5500   63.2900   50.6900 hc        64 PP       0.063200
    575 HB2        77.4100   61.7100   51.3000 hc        64 PP       0.063200
    576 HB3        77.1900   62.0500   49.5400 hc        64 PP       0.063200
    577 C2         74.9500   63.8100   49.8900 c3        65 PP      -0.006100
    578 C1         75.4400   65.2300   50.4200 c3        65 PP       0.076800
    579 CB         74.8900   66.4600   49.6200 c3        65 PP      -0.265900
    580 H21        75.3700   63.6200   48.9000 hc        65 PP       0.001900
    581 H22        73.8800   63.8000   49.7000 hc        65 PP       0.001900
    582 H1         76.5300   65.2300   50.3600 hc        65 PP       0.001800
    583 HB1        75.2400   66.3900   48.5800 hc        65 PP       0.063200
    584 HB2        73.8000   66.3500   49.6700 hc        65 PP       0.063200
    585 HB3        75.1700   67.4600   49.9700 hc        65 PP       0.063200
    586 C2         74.8800   65.3900   51.8400 c3        66 PP      -0.006100
    587 C1         76.0000   65.4200   52.9700 c3        66 PP       0.076800
    588 CB         76.8000   66.7100   52.9000 c3        66 PP      -0.265900
    589 H21        74.2900   66.3100   51.9200 hc        66 PP       0.001900
    590 H22        74.1600   64.6200   52.1200 hc        66 PP       0.001900
    591 H1         76.7000   64.5800   52.8400 hc        66 PP       0.001800
    592 HB1        76.1500   67.5600   52.6600 hc        66 PP       0.063200
    593 HB2        77.3500   67.0100   53.7900 hc        66 PP       0.063200
    594 HB3        77.5700   66.6200   52.1200 hc        66 PP       0.063200
    595 C2         75.3000   65.2000   54.4200 c3        67 PP      -0.006100
    596 C1         76.2000   65.0900   55.6700 c3        67 PP       0.076800
    597 CB         75.4200   64.5400   56.9500 c3        67 PP      -0.265900
    598 H21        74.8800   66.2000   54.5800 hc        67 PP       0.001900
    599 H22        74.4700   64.4900   54.4300 hc        67 PP       0.001900
    600 H1         76.5800   66.0900   55.9400 hc        67 PP       0.001800
    601 HB1        74.4100   64.9500   56.8000 hc        67 PP       0.063200
    602 HB2        75.3100   63.4600   57.0400 hc        67 PP       0.063200
    603 HB3        75.8300   64.8600   57.9100 hc        67 PP       0.063200
    604 C2         77.4600   64.1500   55.4200 c3        68 PP      -0.006100
    605 C1         77.2800   62.7800   54.7100 c3        68 PP       0.076800
    606 CB         78.6000   62.5200   53.9200 c3        68 PP      -0.265900
    607 H21        78.1200   64.8200   54.8600 hc        68 PP       0.001900
    608 H22        78.0400   64.1000   56.3500 hc        68 PP       0.001900
    609 H1         76.4000   62.7900   54.0500 hc        68 PP       0.001800
    610 HB1        78.4000   61.6400   53.2900 hc        68 PP       0.063200
    611 HB2        78.7900   63.3800   53.2700 hc        68 PP       0.063200
    612 HB3        79.5100   62.3000   54.5000 hc        68 PP       0.063200
    613 C2         77.0300   61.5900   55.7800 c3        69 PP      -0.006100
    614 C1         75.9200   60.6100   55.4900 c3        69 PP       0.076800
    615 CB         76.2600   59.6400   54.3100 c3        69 PP      -0.265900
    616 H21        77.9600   61.0100   55.8600 hc        69 PP       0.001900
    617 H22        76.8400   61.9000   56.8100 hc        69 PP       0.001900
    618 H1         75.0300   61.1300   55.1200 hc        69 PP       0.001800
    619 HB1        77.0700   58.9500   54.6000 hc        69 PP       0.063200
    620 HB2        75.3800   59.0300   54.0700 hc        69 PP       0.063200
    621 HB3        76.5300   60.2700   53.4600 hc        69 PP       0.063200
    622 C2         75.4300   59.8100   56.7900 c3        70 PP      -0.006100
    623 C1         74.1500   58.9600   56.7700 c3        70 PP       0.076800
    624 CB         73.0000   59.6700   56.0900 c3        70 PP      -0.265900
    625 H21        76.2300   59.2300   57.2600 hc        70 PP       0.001900
    626 H22        75.1300   60.6100   57.4700 hc        70 PP       0.001900
    627 H1         73.8300   58.9500   57.8200 hc        70 PP       0.001800
    628 HB1        72.7500   60.5800   56.6500 hc        70 PP       0.063200
    629 HB2        73.1900   59.9500   55.0500 hc        70 PP       0.063200
    630 HB3        72.0900   59.0600   56.1500 hc        70 PP       0.063200
    631 C2         74.3800   57.4900   56.3300 c3        71 PP      -0.006100
    632 C1         74.2600   56.3700   57.4500 c3        71 PP       0.076800
    633 CB         72.8300   56.0300   57.9100 c3        71 PP      -0.265900
    634 H21        73.7000   57.2900   55.4900 hc        71 PP       0.001900
    635 H22        75.4000   57.4200   55.9300 hc        71 PP       0.001900
    636 H1         74.7100   56.7600   58.3700 hc        71 PP       0.001800
    637 HB1        72.8100   55.3800   58.7900 hc        71 PP       0.063200
    638 HB2        72.3200   56.9400   58.2600 hc        71 PP       0.063200
    639 HB3        72.3600   55.5900   57.0200 hc        71 PP       0.063200
    640 C2         74.9400   55.0500   57.0700 c3        72 PP      -0.006100
    641 C1         76.4900   55.1000   57.0000 c3        72 PP       0.076800
    642 CB         77.1800   54.7100   58.3400 c3        72 PP      -0.265900
    643 H21        74.8500   54.3600   57.9200 hc        72 PP       0.001900
    644 H22        74.5200   54.6600   56.1300 hc        72 PP       0.001900
    645 H1         76.8100   56.1000   56.6800 hc        72 PP       0.001800
    646 HB1        77.1600   53.6200   58.2900 hc        72 PP       0.063200
    647 HB2        78.1800   55.1800   58.3500 hc        72 PP       0.063200
    648 HB3        76.7000   55.0500   59.2600 hc        72 PP       0.063200
    649 C2         76.9400   54.1400   55.8300 c3        73 PP      -0.006100
    650 C1         78.4700   54.0300   55.5900 c3        73 PP       0.076800
    651 CB         78.7700   53.0700   54.4100 c3        73 PP      -0.265900
    652 H21        76.5700   53.1200   56.0000 hc        73 PP       0.001900
    653 H22        76.4600   54.5300   54.9200 hc        73 PP       0.001900
    654 H1         78.9800   53.6000   56.4600 hc        73 PP       0.001800
    655 HB1        79.8500   52.9000   54.3000 hc        73 PP       0.063200
    656 HB2        78.4700   52.0500   54.7000 hc        73 PP       0.063200
    657 HB3        78.3900   53.2700   53.4000 hc        73 PP       0.063200
    658 C2         -0.8500   55.4400   55.4700 c3        74 PP      -0.006100
    659 C1          0.7000   55.5100   55.2400 c3        74 PP       0.076800
    660 CB          1.1600   56.9300   54.9500 c3        74 PP      -0.265900
    661 H21        -1.2800   55.9000   54.5800 hc        74 PP       0.001900
    662 H22        -1.1300   56.1500   56.2600 hc        74 PP       0.001900
    663 H1          0.8000   54.9700   54.2900 hc        74 PP       0.001800
    664 HB1         2.1500   56.8500   54.4700 hc        74 PP       0.063200
    665 HB2         0.4400   57.4600   54.3200 hc        74 PP       0.063200
    666 HB3         1.3000   57.4500   55.9000 hc        74 PP       0.063200
    667 C2          1.5500   54.7300   56.3100 c3        75 PP      -0.006100
    668 C1          3.0500   54.5400   55.9700 c3        75 PP       0.076800
    669 CB          3.9100   54.0300   57.2000 c3        75 PP      -0.265900
    670 H21         1.5000   55.1200   57.3300 hc        75 PP       0.001900
    671 H22         1.1400   53.7200   56.5000 hc        75 PP       0.001900
    672 H1          3.3700   55.5700   55.7900 hc        75 PP       0.001800
    673 HB1         4.2400   53.0000   57.0500 hc        75 PP       0.063200
    674 HB2         4.8300   54.6200   57.3600 hc        75 PP       0.063200
    675 HB3         3.3900   54.0900   58.1700 hc        75 PP       0.063200
    676 C2          3.3700   53.7200   54.7100 c3        76 PP      -0.006100
    677 C1          4.9100   53.6400   54.3300 c3        76 PP       0.076800
    678 CB          5.2600   52.2900   53.7200 c3        76 PP      -0.265900
    679 H21         3.0500   52.7000   54.9300 hc        76 PP       0.001900
    680 H22         2.7300   54.0700   53.8800 hc        76 PP       0.001900
    681 H1          5.5100   53.8300   55.2300 hc        76 PP       0.001800
    682 HB1         5.1600   52.3000   52.6300 hc        76 PP       0.063200
    683 HB2         6.3300   52.1800   53.9300 hc        76 PP       0.063200
    684 HB3         4.7100   51.4300   54.1100 hc        76 PP       0.063200
    685 C2          5.2700   54.9100   53.4400 c3        77 PP      -0.006100
    686 C1          6.4600   55.7000   53.9100 c3        77 PP       0.076800
    687 CB          7.7500   54.8500   53.9600 c3        77 PP      -0.265900
    688 H21         5.4500   54.6800   52.3800 hc        77 PP       0.001900
    689 H22         4.4200   55.6000   53.4200 hc        77 PP       0.001900
    690 H1          6.1900   56.1200   54.8900 hc        77 PP       0.001800
    691 HB1         8.7800   55.2400   54.0300 hc        77 PP       0.063200
    692 HB2         7.6800   54.3200   54.9200 hc        77 PP       0.063200
    693 HB3         7.6700   54.1400   53.1300 hc        77 PP       0.063200
    694 C2          6.8000   56.8600   52.9200 c3        78 PP      -0.006100
    695 C1          5.8200   58.1500   52.9400 c3        78 PP       0.076800
    696 CB          6.0600   58.7800   54.3600 c3        78 PP      -0.265900
    697 H21         7.8100   57.1700   53.2100 hc        78 PP       0.001900
    698 H22         6.8100   56.4100   51.9200 hc        78 PP       0.001900
    699 H1          4.8100   57.7200   52.9100 hc        78 PP       0.001800
    700 HB1         6.0100   59.8700   54.2800 hc        78 PP       0.063200
    701 HB2         5.3100   58.4600   55.0900 hc        78 PP       0.063200
    702 HB3         7.0500   58.5300   54.7500 hc        78 PP       0.063200
    703 C2          6.0700   58.9900   51.6700 c3        79 PP      -0.006100
    704 C1          5.0200   60.1100   51.4500 c3        79 PP       0.076800
    705 CB          5.7700   61.2700   50.8600 c3        79 PP      -0.265900
    706 H21         7.0700   59.4400   51.5800 hc        79 PP       0.001900
    707 H22         6.0800   58.2400   50.8700 hc        79 PP       0.001900
    708 H1          4.7000   60.3900   52.4600 hc        79 PP       0.001800
    709 HB1         6.4100   60.9100   50.0400 hc        79 PP       0.063200
    710 HB2         5.1400   62.0200   50.3600 hc        79 PP       0.063200
    711 HB3         6.2300   61.8100   51.6900 hc        79 PP       0.063200
    712 C2          3.8200   59.6800   50.5000 c3        80 PP      -0.006100
    713 C1          2.4600   59.7500   51.1700 c3        80 PP       0.076800
    714 CB          2.3400   58.7500   52.3600 c3        80 PP      -0.265900
    715 H21         3.7700   60.3600   49.6500 hc        80 PP       0.001900
    716 H22         3.9900   58.7000   50.0300 hc        80 PP       0.001900
    717 H1          1.7100   59.4200   50.4400 hc        80 PP       0.001800
    718 HB1         1.3400   58.7600   52.8300 hc        80 PP       0.063200
    719 HB2         2.6900   57.7500   52.1000 hc        80 PP       0.063200
    720 HB3         2.9400   59.0300   53.2400 hc        80 PP       0.063200
    721 C2          2.0200   61.1500   51.6600 c3        81 PP      -0.006100
    722 C1          1.7300   62.2500   50.5600 c3        81 PP       0.076800
    723 CB          0.5100   61.8600   49.7800 c3        81 PP      -0.265900
    724 H21         1.1500   61.1600   52.3100 hc        81 PP       0.001900
    725 H22         2.8600   61.5000   52.2700 hc        81 PP       0.001900
    726 H1          2.6400   62.3000   49.9500 hc        81 PP       0.001800
    727 HB1        -0.2900   61.5600   50.4700 hc        81 PP       0.063200
    728 HB2         0.1600   62.7400   49.2300 hc        81 PP       0.063200
    729 HB3         0.8900   61.0500   49.1500 hc        81 PP       0.063200
    730 C2          1.4500   63.6100   51.3300 c3        82 PP      -0.006100
    731 C1          1.5800   64.8800   50.4300 c3        82 PP       0.076800
    732 CB          0.7000   66.0600   50.8800 c3        82 PP      -0.265900
    733 H21         0.4300   63.5700   51.7300 hc        82 PP       0.001900
    734 H22         2.1200   63.7200   52.2000 hc        82 PP       0.001900
    735 H1          1.2000   64.6300   49.4300 hc        82 PP       0.001800
    736 HB1         1.2100   66.7000   51.6100 hc        82 PP       0.063200
    737 HB2         0.4400   66.6200   49.9700 hc        82 PP       0.063200
    738 HB3        -0.2600   65.6000   51.1400 hc        82 PP       0.063200
    739 C2          2.9900   65.4500   50.1200 c3        83 PP      -0.006100
    740 C1          3.9000   65.8000   51.3500 c3        83 PP       0.076800
    741 CB          4.8100   64.6100   51.8500 c3        83 PP      -0.265900
    742 H21         3.5300   64.6800   49.5500 hc        83 PP       0.001900
    743 H22         2.9100   66.2400   49.3600 hc        83 PP       0.001900
    744 H1          3.3200   66.1600   52.2100 hc        83 PP       0.001800
    745 HB1         4.2400   63.6700   51.9200 hc        83 PP       0.063200
    746 HB2         5.5400   64.4600   51.0400 hc        83 PP       0.063200
    747 HB3         5.3500   64.8700   52.7600 hc        83 PP       0.063200
    748 C2          4.8800   66.9300   51.0100 c3        84 PP      -0.006100
    749 C1          4.3800   68.3600   51.3800 c3        84 PP       0.076800
    750 CB          3.1900   68.8700   50.5200 c3        84 PP      -0.265900
    751 H21         5.8300   66.7500   51.5200 hc        84 PP       0.001900
    752 H22         5.1000   66.8400   49.9300 hc        84 PP       0.001900
    753 H1          5.2700   68.9300   51.1000 hc        84 PP       0.001800
    754 HB1         2.2400   68.6100   51.0200 hc        84 PP       0.063200
    755 HB2         3.1700   69.9600   50.4100 hc        84 PP       0.063200
    756 HB3         3.2200   68.6700   49.4500 hc        84 PP       0.063200
    757 C2          4.0400   68.5000   52.9600 c3        85 PP      -0.006100
    758 C1          4.3900   69.8800   53.5000 c3        85 PP       0.076800
    759 CB          3.7500   70.1800   54.9100 c3        85 PP      -0.265900
    760 H21         3.0300   68.2300   53.3000 hc        85 PP       0.001900
    761 H22         4.6600   67.7700   53.5000 hc        85 PP       0.001900
    762 H1          3.7700   70.5300   52.8600 hc        85 PP       0.001800
    763 HB1         2.7900   69.6500   55.0000 hc        85 PP       0.063200
    764 HB2         4.4300   69.8900   55.7200 hc        85 PP       0.063200
    765 HB3         3.5300   71.2400   55.0600 hc        85 PP       0.063200
    766 C2          5.8900   70.2200   53.5000 c3        86 PP      -0.006100
    767 C1          6.2200   71.7100   53.3900 c3        86 PP       0.076800
    768 CB          7.6900   71.9600   53.8000 c3        86 PP      -0.265900
    769 H21         6.3800   69.8400   54.4100 hc        86 PP       0.001900
    770 H22         6.3400   69.6400   52.6800 hc        86 PP       0.001900
    771 H1          5.5500   72.1500   54.1400 hc        86 PP       0.001800
    772 HB1         7.5700   72.9100   54.3200 hc        86 PP       0.063200
    773 HB2         8.1300   71.2700   54.5400 hc        86 PP       0.063200
    774 HB3         8.3200   71.9900   52.9000 hc        86 PP       0.063200
    775 C2          5.9400   72.2800   51.9800 c3        87 PP      -0.006100
    776 C1          6.3300   73.7600   51.5900 c3        87 PP       0.076800
    777 CB          6.1500   73.9600   50.0500 c3        87 PP      -0.265900
    778 H21         6.4300   71.5400   51.3400 hc        87 PP       0.001900
    779 H22         4.8800   72.1600   51.7000 hc        87 PP       0.001900
    780 H1          7.3800   73.9700   51.8100 hc        87 PP       0.001800
    781 HB1         5.2000   73.5300   49.7000 hc        87 PP       0.063200
    782 HB2         6.3600   74.9900   49.7600 hc        87 PP       0.063200
    783 HB3         6.9100   73.3800   49.5000 hc        87 PP       0.063200
    784 C2          5.5700   74.8700   52.2600 c3        88 PP      -0.006100
    785 C1          3.9500   74.9400   52.2000 c3        88 PP       0.076800
    786 CB          3.2000   73.9900   53.1600 c3        88 PP      -0.265900
    787 H21         5.7400   74.7700   53.3400 hc        88 PP       0.001900
    788 H22         6.1400   75.7700   52.0000 hc        88 PP       0.001900
    789 H1          3.7400   74.6500   51.1600 hc        88 PP       0.001800
    790 HB1         3.3200   72.9600   52.8200 hc        88 PP       0.063200
    791 HB2         3.6000   74.2700   54.1400 hc        88 PP       0.063200
    792 HB3         2.1800   74.3400   53.4000 hc        88 PP       0.063200
    793 C2          3.4100   76.4000   52.3800 c3        89 PP      -0.006100
    794 C1          3.6400   77.2700   51.1600 c3        89 PP       0.076800
    795 CB          2.7400   76.9500   50.0100 c3        89 PP      -0.265900
    796 H21         2.3800   76.4300   52.7300 hc        89 PP       0.001900
    797 H22         3.9900   76.8300   53.2000 hc        89 PP       0.001900
    798 H1          4.6900   77.1300   50.8700 hc        89 PP       0.001800
    799 HB1         3.1600   77.5200   49.1700 hc        89 PP       0.063200
    800 HB2         2.6700   75.8700   49.8400 hc        89 PP       0.063200
    801 HB3         1.7500   77.3800   50.2000 hc        89 PP       0.063200
    802 C2          3.4900   78.7100   51.7000 c3        90 PP      -0.006100
    803 C1          4.3100   79.7600   50.7400 c3        90 PP       0.076800
    804 CB          4.0800   81.2100   51.1000 c3        90 PP      -0.265900
    805 H21         3.9400   78.8100   52.7000 hc        90 PP       0.001900
    806 H22         2.4100   78.9200   51.7200 hc        90 PP       0.001900
    807 H1          4.2600   79.5300   49.6700 hc        90 PP       0.001800
    808 HB1         4.5500   81.7700   50.2800 hc        90 PP       0.063200
    809 HB2         3.0000   81.3700   51.1000 hc        90 PP       0.063200
    810 HB3         4.4900   81.4900   52.0800 hc        90 PP       0.063200
    811 C2         60.6500   78.6500   49.8500 c3        91 PP      -0.006100
    812 C1         60.5200   79.8900   50.8200 c3        91 PP       0.076800
    813 CB         61.0600   81.0800   50.0000 c3        91 PP      -0.265900
    814 H21        60.1800   77.8100   50.3800 hc        91 PP       0.001900
    815 H22        61.6900   78.3300   49.7000 hc        91 PP       0.001900
    816 H1         61.1400   79.7000   51.7100 hc        91 PP       0.001800
    817 HB1        60.2500   81.4600   49.3600 hc        91 PP       0.063200
    818 HB2        61.4300   81.8300   50.7200 hc        91 PP       0.063200
    819 HB3        61.8500   80.7300   49.3300 hc        91 PP       0.063200
    820 C2         59.0300   80.2700   51.1700 c3        92 PP      -0.006100
    821 C1         58.1900   79.1700   51.8400 c3        92 PP       0.076800
    822 CB         58.9100   78.7800   53.2200 c3        92 PP      -0.265900
    823 H21        59.1200   81.1100   51.8800 hc        92 PP       0.001900
    824 H22        58.5000   80.6400   50.2900 hc        92 PP       0.001900
    825 H1         58.1600   78.2500   51.2400 hc        92 PP       0.001800
    826 HB1        58.4900   77.8000   53.5000 hc        92 PP       0.063200
    827 HB2        60.0000   78.6500   53.3100 hc        92 PP       0.063200
    828 HB3        58.5800   79.5200   53.9600 hc        92 PP       0.063200
    829 C2         56.7600   79.5900   52.1400 c3        93 PP      -0.006100
    830 C1         55.6800   79.0100   51.1400 c3        93 PP       0.076800
    831 CB         56.0000   79.4000   49.6800 c3        93 PP      -0.265900
    832 H21        56.3800   79.4300   53.1500 hc        93 PP       0.001900
    833 H22        56.6600   80.6900   52.1300 hc        93 PP       0.001900
    834 H1         54.7900   79.5600   51.4700 hc        93 PP       0.001800
    835 HB1        55.1400   79.2400   49.0200 hc        93 PP       0.063200
    836 HB2        56.3900   80.4200   49.5500 hc        93 PP       0.063200
    837 HB3        56.7500   78.7700   49.1900 hc        93 PP       0.063200
    838 C2         55.5100   77.5300   51.3300 c3        94 PP      -0.006100
    839 C1         54.2400   76.8700   50.7400 c3        94 PP       0.076800
    840 CB         54.3300   75.3500   50.6300 c3        94 PP      -0.265900
    841 H21        56.4100   77.0500   50.9200 hc        94 PP       0.001900
    842 H22        55.6100   77.3700   52.4100 hc        94 PP       0.001900
    843 H1         54.1800   77.1600   49.6900 hc        94 PP       0.001800
    844 HB1        54.3600   74.7000   51.5200 hc        94 PP       0.063200
    845 HB2        53.6200   74.8900   49.9300 hc        94 PP       0.063200
    846 HB3        55.2800   75.1900   50.1100 hc        94 PP       0.063200
    847 C2         52.9000   77.2800   51.4800 c3        95 PP      -0.006100
    848 C1         51.8700   78.0200   50.6500 c3        95 PP       0.076800
    849 CB         50.9900   76.9700   49.9300 c3        95 PP      -0.265900
    850 H21        52.5000   76.3400   51.9000 hc        95 PP       0.001900
    851 H22        53.1700   77.9400   52.3100 hc        95 PP       0.001900
    852 H1         52.3800   78.5900   49.8600 hc        95 PP       0.001800
    853 HB1        51.6500   76.2700   49.4000 hc        95 PP       0.063200
    854 HB2        50.3200   76.5300   50.6800 hc        95 PP       0.063200
    855 HB3        50.2500   77.4200   49.2600 hc        95 PP       0.063200
    856 C2         50.9600   -1.0400   51.5500 c3        96 PP      -0.006100
    857 C1         51.5700    0.3800   51.7300 c3        96 PP       0.076800
    858 CB         51.6100    1.1400   50.4100 c3        96 PP      -0.265900
    859 H21        49.9800   -0.8600   51.0900 hc        96 PP       0.001900
    860 H22        50.8300   -1.6000   52.4900 hc        96 PP       0.001900
    861 H1         52.6000    0.2600   52.0700 hc        96 PP       0.001800
    862 HB1        52.0200    0.5900   49.5500 hc        96 PP       0.063200
    863 HB2        50.6200    1.3900   50.0000 hc        96 PP       0.063200
    864 HB3        52.2600    2.0100   50.5200 hc        96 PP       0.063200
    865 C2         50.8400    1.1100   52.8400 c3        97 PP      -0.006100
    866 C1         51.4600    2.5500   53.0200 c3        97 PP       0.076800
    867 CB         50.6400    3.4600   54.0300 c3        97 PP      -0.265900
    868 H21        49.7800    1.2000   52.5700 hc        97 PP       0.001900
    869 H22        50.9500    0.5500   53.7800 hc        97 PP       0.001900
    870 H1         51.4600    3.1200   52.0800 hc        97 PP       0.001800
    871 HB1        51.0700    4.4600   53.9600 hc        97 PP       0.063200
    872 HB2        49.5800    3.6200   53.8000 hc        97 PP       0.063200
    873 HB3        50.7000    3.0600   55.0500 hc        97 PP       0.063200
    874 C2         53.0200    2.4900   53.2800 c3        98 PP      -0.006100
    875 C1         53.3000    1.9100   54.7500 c3        98 PP       0.076800
    876 CB         54.3700    0.8200   54.7000 c3        98 PP      -0.265900
    877 H21        53.6800    2.0200   52.5400 hc        98 PP       0.001900
    878 H22        53.3600    3.5300   53.3100 hc        98 PP       0.001900
    879 H1         52.4000    1.3700   55.0800 hc        98 PP       0.001800
    880 HB1        55.3700    1.1000   54.3600 hc        98 PP       0.063200
    881 HB2        54.5600    0.4200   55.7000 hc        98 PP       0.063200
    882 HB3        54.0600    0.0100   54.0200 hc        98 PP       0.063200
    883 C2         53.7100    3.1000   55.7300 c3        99 PP      -0.006100
    884 C1         53.9200    2.8200   57.2700 c3        99 PP       0.076800
    885 CB         54.3200    4.0400   58.0000 c3        99 PP      -0.265900
    886 H21        54.5400    3.6400   55.2600 hc        99 PP       0.001900
    887 H22        52.8500    3.7700   55.8100 hc        99 PP       0.001900
    888 H1         54.7400    2.0900   57.2700 hc        99 PP       0.001800
    889 HB1        54.7000    3.9100   59.0200 hc        99 PP       0.063200
    890 HB2        55.0100    4.6200   57.3900 hc        99 PP       0.063200
    891 HB3        53.5100    4.7800   58.0000 hc        99 PP       0.063200
    892 C2         52.6400    2.0700   57.8100 c3       100 PP      -0.006100
    893 C1         52.5200    1.8500   59.3600 c3       100 PP       0.076800
    894 CB         51.5900    2.9200   59.9600 c3       100 PP      -0.265900
    895 H21        51.7000    2.5600   57.5300 hc       100 PP       0.001900
    896 H22        52.6100    1.0900   57.3300 hc       100 PP       0.001900
    897 H1         53.5000    1.9300   59.8600 hc       100 PP       0.001800
    898 HB1        52.0800    3.8900   60.0800 hc       100 PP       0.063200
    899 HB2        50.7400    3.1400   59.3100 hc       100 PP       0.063200
    900 HB3        51.2500    2.6000   60.9600 hc       100 PP       0.063200
    901 C2         51.9900   80.3800   59.6400 c3       101 PP      -0.006100
    902 C1         53.0100   79.2600   59.3300 c3       101 PP       0.076800
    903 CB         54.2400   79.3000   60.3200 c3       101 PP      -0.265900
    904 H21        51.6300   80.2600   60.6600 hc       101 PP       0.001900
    905 H22        51.0900   80.1300   59.0700 hc       101 PP       0.001900
    906 H1         53.4300   79.4700   58.3500 hc       101 PP       0.001800
    907 HB1        54.6200   80.3100   60.1200 hc       101 PP       0.063200
    908 HB2        53.8900   79.3000   61.3600 hc       101 PP       0.063200
    909 HB3        54.9500   78.5000   60.1000 hc       101 PP       0.063200
    910 C2         52.3000   77.8500   59.3800 c3       102 PP      -0.006100
    911 C1         52.9800   76.6600   58.6800 c3       102 PP       0.076800
    912 CB         52.3500   75.3700   59.0400 c3       102 PP      -0.265900
    913 H21        51.9100   77.6800   60.4000 hc       102 PP       0.001900
    914 H22        51.3600   77.9600   58.8200 hc       102 PP       0.001900
    915 H1         54.0600   76.6400   58.8800 hc       102 PP       0.001800
    916 HB1        52.6300   75.2100   60.0900 hc       102 PP       0.063200
    917 HB2        51.2600   75.3700   58.8800 hc       102 PP       0.063200
    918 HB3        52.8300   74.5200   58.5400 hc       102 PP       0.063200
    919 C2         52.9300   76.7500   57.1300 c3       103 PP      -0.006100
    920 C1         54.2300   76.5000   56.3500 c3       103 PP       0.076800
    921 CB         53.8600   76.2800   54.8500 c3       103 PP      -0.265900
    922 H21        52.1100   76.0900   56.8200 hc       103 PP       0.001900
    923 H22        52.6700   77.7500   56.7400 hc       103 PP       0.001900
    924 H1         54.5800   75.5100   56.6800 hc       103 PP       0.001800
    925 HB1        52.8100   75.9800   54.7600 hc       103 PP       0.063200
    926 HB2        53.9200   77.2700   54.3700 hc       103 PP       0.063200
    927 HB3        54.4500   75.4900   54.3700 hc       103 PP       0.063200
    928 C2         55.3400   77.5600   56.5600 c3       104 PP      -0.006100
    929 C1         56.7700   77.0000   56.6200 c3       104 PP       0.076800
    930 CB         57.1800   76.2700   55.3800 c3       104 PP      -0.265900
    931 H21        55.3800   78.2300   55.6900 hc       104 PP       0.001900
    932 H22        55.0400   78.1500   57.4300 hc       104 PP       0.001900
    933 H1         56.7300   76.3200   57.4900 hc       104 PP       0.001800
    934 HB1        58.2700   76.1600   55.3100 hc       104 PP       0.063200
    935 HB2        56.7000   75.2900   55.3200 hc       104 PP       0.063200
    936 HB3        56.8100   76.9000   54.5600 hc       104 PP       0.063200
    937 C2         57.7200   78.1600   56.9500 c3       105 PP      -0.006100
    938 C1         57.5500   78.8900   58.3100 c3       105 PP       0.076800
    939 CB         57.7000   77.8800   59.5200 c3       105 PP      -0.265900
    940 H21        58.7900   77.9400   56.9300 hc       105 PP       0.001900
    941 H22        57.6700   78.9000   56.1400 hc       105 PP       0.001900
    942 H1         56.5300   79.3000   58.3400 hc       105 PP       0.001800
    943 HB1        56.9700   77.0600   59.5400 hc       105 PP       0.063200
    944 HB2        58.6800   77.3900   59.5000 hc       105 PP       0.063200
    945 HB3        57.5600   78.4900   60.4200 hc       105 PP       0.063200
    946 C2         58.5500    0.0800   58.6100 c3       106 PP      -0.006100
    947 C1         58.3900    1.3200   57.6700 c3       106 PP       0.076800
    948 CB         57.3700    2.3600   58.3300 c3       106 PP      -0.265900
    949 H21        58.3000    0.3600   59.6400 hc       106 PP       0.001900
    950 H22        59.5900   -0.2700   58.5100 hc       106 PP       0.001900
    951 H1         57.9200    1.1400   56.6900 hc       106 PP       0.001800
    952 HB1        57.8200    2.8500   59.2100 hc       106 PP       0.063200
    953 HB2        57.1500    3.2000   57.6700 hc       106 PP       0.063200
    954 HB3        56.3800    1.9200   58.4900 hc       106 PP       0.063200
    955 C2         59.6200    2.1300   57.3500 c3       107 PP      -0.006100
    956 C1         60.9200    1.3900   56.7500 c3       107 PP       0.076800
    957 CB         60.7500    0.8500   55.4000 c3       107 PP      -0.265900
    958 H21        59.2700    2.8500   56.6000 hc       107 PP       0.001900
    959 H22        60.0000    2.6800   58.2300 hc       107 PP       0.001900
    960 H1         61.2900    0.5500   57.3500 hc       107 PP       0.001800
    961 HB1        60.3300    1.4600   54.6000 hc       107 PP       0.063200
    962 HB2        61.6700    0.4000   55.0000 hc       107 PP       0.063200
    963 HB3        59.9600    0.1000   55.4700 hc       107 PP       0.063200
    964 C2         62.1000    2.4400   56.6600 c3       108 PP      -0.006100
    965 C1         62.8900    2.6800   57.9700 c3       108 PP       0.076800
    966 CB         64.0800    1.7500   58.0800 c3       108 PP      -0.265900
    967 H21        62.7600    2.2300   55.8100 hc       108 PP       0.001900
    968 H22        61.6000    3.3600   56.3300 hc       108 PP       0.001900
    969 H1         62.2200    2.4500   58.8100 hc       108 PP       0.001800
    970 HB1        64.5100    1.4700   59.0500 hc       108 PP       0.063200
    971 HB2        63.8400    0.8000   57.5900 hc       108 PP       0.063200
    972 HB3        64.9200    2.1000   57.4700 hc       108 PP       0.063200
    973 C2         63.2500    4.1900   58.0300 c3       109 PP      -0.006100
    974 C1         64.2600    4.6400   59.0200 c3       109 PP       0.076800
    975 CB         65.1300    5.8500   58.5200 c3       109 PP      -0.265900
    976 H21        63.7200    4.4000   57.0700 hc       109 PP       0.001900
    977 H22        62.2900    4.7200   58.1500 hc       109 PP       0.001900
    978 H1         65.0200    3.8600   59.1600 hc       109 PP       0.001800
    979 HB1        64.6000    6.8000   58.3900 hc       109 PP       0.063200
    980 HB2        65.9300    6.1600   59.2000 hc       109 PP       0.063200
    981 HB3        65.7200    5.5100   57.6500 hc       109 PP       0.063200
    982 C2         63.5100    5.0600   60.3000 c3       110 PP      -0.006100
    983 C1         63.2200    3.9100   61.2800 c3       110 PP       0.076800
    984 CB         64.4900    3.1800   61.7500 c3       110 PP      -0.265900
    985 H21        64.1000    5.8700   60.7500 hc       110 PP       0.001900
    986 H22        62.5500    5.5200   60.0400 hc       110 PP       0.001900
    987 H1         62.6500    3.0900   60.8100 hc       110 PP       0.001800
    988 HB1        65.3000    3.8600   62.0600 hc       110 PP       0.063200
    989 HB2        64.2700    2.4100   62.5100 hc       110 PP       0.063200
    990 HB3        64.9000    2.6700   60.8700 hc       110 PP       0.063200
    991 C2         62.4800    4.3300   62.5700 c3       111 PP      -0.006100
    992 C1         61.1400    5.1800   62.4700 c3       111 PP       0.076800
    993 CB         60.0700    4.3300   61.7400 c3       111 PP      -0.265900
    994 H21        62.2800    3.4800   63.2300 hc       111 PP       0.001900
    995 H22        63.1900    5.0200   63.0500 hc       111 PP       0.001900
    996 H1         61.3500    6.0300   61.8000 hc       111 PP       0.001800
    997 HB1        59.2700    4.9600   61.3300 hc       111 PP       0.063200
    998 HB2        60.5700    3.8000   60.9200 hc       111 PP       0.063200
    999 HB3        59.6900    3.5900   62.4600 hc       111 PP       0.063200
   1000 C2         60.7300    5.7300   63.8400 c3       112 PP      -0.006100
   1001 C1         60.8200    7.2700   64.0900 c3       112 PP       0.076800
   1002 CB         59.9300    7.9400   63.0900 c3       112 PP      -0.265900
   1003 H21        59.6800    5.4500   63.9800 hc       112 PP       0.001900
   1004 H22        61.2200    5.2200   64.6800 hc       112 PP       0.001900
   1005 H1         61.8100    7.6900   63.8600 hc       112 PP       0.001800
   1006 HB1        59.0600    7.2800   63.0200 hc       112 PP       0.063200
   1007 HB2        59.5800    8.9300   63.3900 hc       112 PP       0.063200
   1008 HB3        60.3900    8.0200   62.0900 hc       112 PP       0.063200
   1009 C2         60.5400    7.7400   65.5400 c3       113 PP      -0.006100
   1010 C1         61.7800    8.0900   66.3600 c3       113 PP       0.076800
   1011 CB         62.7300    6.9200   66.5400 c3       113 PP      -0.265900
   1012 H21        59.8400    8.5800   65.5000 hc       113 PP       0.001900
   1013 H22        60.0400    6.9400   66.1000 hc       113 PP       0.001900
   1014 H1         61.5200    8.3300   67.4000 hc       113 PP       0.001800
   1015 HB1        63.4500    6.7300   65.7400 hc       113 PP       0.063200
   1016 HB2        63.4200    7.1200   67.3700 hc       113 PP       0.063200
   1017 HB3        62.2400    5.9500   66.6700 hc       113 PP       0.063200
   1018 C2         62.6200    9.2700   65.7800 c3       114 PP      -0.006100
   1019 C1         61.9100   10.4700   65.2100 c3       114 PP       0.076800
   1020 CB         61.4700   11.5100   66.2400 c3       114 PP      -0.265900
   1021 H21        63.2000    9.4900   66.6900 hc       114 PP       0.001900
   1022 H22        63.3900    8.9800   65.0500 hc       114 PP       0.001900
   1023 H1         60.9700   10.1200   64.7700 hc       114 PP       0.001800
   1024 HB1        60.8700   12.3500   65.8700 hc       114 PP       0.063200
   1025 HB2        60.8700   11.0500   67.0300 hc       114 PP       0.063200
   1026 HB3        62.3700   11.9800   66.6600 hc       114 PP       0.063200
   1027 C2         62.7300   11.0100   64.0400 c3       115 PP      -0.006100
   1028 C1         62.0200   12.0900   63.1400 c3       115 PP       0.076800
   1029 CB         63.1500   12.5100   62.1100 c3       115 PP      -0.265900
   1030 H21        63.6800   11.4800   64.3200 hc       115 PP       0.001900
   1031 H22        62.9700   10.2000   63.3400 hc       115 PP       0.001900
   1032 H1         61.8000   12.8800   63.8700 hc       115 PP       0.001800
   1033 HB1        63.4900   11.6400   61.5400 hc       115 PP       0.063200
   1034 HB2        62.7200   13.1800   61.3500 hc       115 PP       0.063200
   1035 HB3        63.9800   13.0000   62.6200 hc       115 PP       0.063200
   1036 C2         60.7100   11.4400   62.4600 c3       116 PP      -0.006100
   1037 C1         60.0600   12.2600   61.2900 c3       116 PP       0.076800
   1038 CB         59.1500   11.3200   60.5300 c3       116 PP      -0.265900
   1039 H21        61.0000   10.4400   62.1100 hc       116 PP       0.001900
   1040 H22        59.9600   11.3100   63.2400 hc       116 PP       0.001900
   1041 H1         60.8100   12.5200   60.5300 hc       116 PP       0.001800
   1042 HB1        59.7100   10.6800   59.8400 hc       116 PP       0.063200
   1043 HB2        58.5400   10.8400   61.3000 hc       116 PP       0.063200
   1044 HB3        58.4000   11.8400   59.9200 hc       116 PP       0.063200
   1045 C2         59.2700   13.5500   61.6300 c3       117 PP      -0.006100
   1046 C1         60.1100   14.8200   61.8600 c3       117 PP       0.076800
   1047 CB         60.7800   15.4100   60.5400 c3       117 PP      -0.265900
   1048 H21        58.4700   13.7300   60.9200 hc       117 PP       0.001900
   1049 H22        58.7500   13.2800   62.5600 hc       117 PP       0.001900
   1050 H1         60.9600   14.5500   62.5000 hc       117 PP       0.001800
   1051 HB1        61.2900   16.3700   60.7400 hc       117 PP       0.063200
   1052 HB2        61.5600   14.7600   60.1300 hc       117 PP       0.063200
   1053 HB3        60.0000   15.5200   59.7800 hc       117 PP       0.063200
   1054 C2         59.3400   15.9200   62.6000 c3       118 PP      -0.006100
   1055 C1         60.2700   16.9600   63.3100 c3       118 PP       0.076800
   1056 CB         59.9600   18.4000   62.9300 c3       118 PP      -0.265900
   1057 H21        58.6100   16.3100   61.8800 hc       118 PP       0.001900
   1058 H22        58.6700   15.5100   63.3700 hc       118 PP       0.001900
   1059 H1         61.3400   16.8500   63.1000 hc       118 PP       0.001800
   1060 HB1        58.9400   18.7300   63.1800 hc       118 PP       0.063200
   1061 HB2        60.6500   19.1200   63.3900 hc       118 PP       0.063200
   1062 HB3        60.0000   18.4200   61.8300 hc       118 PP       0.063200
   1063 C2         60.2300   16.8600   64.8900 c3       119 PP      -0.006100
   1064 C1         60.7100   15.5400   65.6900 c3       119 PP       0.076800
   1065 CB         61.8900   15.8600   66.6000 c3       119 PP      -0.265900
   1066 H21        60.8300   17.7100   65.2500 hc       119 PP       0.001900
   1067 H22        59.1900   17.0500   65.1800 hc       119 PP       0.001900
   1068 H1         60.9800   14.7700   64.9600 hc       119 PP       0.001800
   1069 HB1        62.2300   14.9000   67.0100 hc       119 PP       0.063200
   1070 HB2        62.7200   16.3300   66.0600 hc       119 PP       0.063200
   1071 HB3        61.5100   16.5600   67.3500 hc       119 PP       0.063200
   1072 C2         59.5300   15.0200   66.6100 c3       120 PP      -0.006100
   1073 C1         58.2600   14.3100   65.8700 c3       120 PP       0.076800
   1074 CB         57.3700   13.6200   66.8600 c3       120 PP      -0.265900
   1075 H21        59.2100   15.8600   67.2500 hc       120 PP       0.001900
   1076 H22        59.8800   14.3200   67.3800 hc       120 PP       0.001900
   1077 H1         58.6500   13.6500   65.0800 hc       120 PP       0.001800
   1078 HB1        57.9000   12.9500   67.5400 hc       120 PP       0.063200
   1079 HB2        56.8600   14.4200   67.4000 hc       120 PP       0.063200
   1080 HB3        56.5600   12.9700   66.5100 hc       120 PP       0.063200
   1081 C2         44.3200   51.5200   55.0300 c3       121 PP      -0.006100
   1082 C1         43.2600   52.0700   55.9000 c3       121 PP       0.076800
   1083 CB         41.9200   51.7900   55.3200 c3       121 PP      -0.265900
   1084 H21        44.3100   52.0300   54.0600 hc       121 PP       0.001900
   1085 H22        45.3100   51.8400   55.4000 hc       121 PP       0.001900
   1086 H1         43.4500   53.1500   55.8800 hc       121 PP       0.001800
   1087 HB1        42.0000   50.7200   55.1000 hc       121 PP       0.063200
   1088 HB2        41.1100   51.9300   56.0500 hc       121 PP       0.063200
   1089 HB3        41.7100   52.2900   54.3600 hc       121 PP       0.063200
   1090 C2         43.3100   51.3500   57.3500 c3       122 PP      -0.006100
   1091 C1         42.3800   51.8400   58.4900 c3       122 PP       0.076800
   1092 CB         42.5700   50.9300   59.7500 c3       122 PP      -0.265900
   1093 H21        43.2000   50.2700   57.1800 hc       122 PP       0.001900
   1094 H22        44.3300   51.5700   57.7000 hc       122 PP       0.001900
   1095 H1         41.3500   51.6500   58.1600 hc       122 PP       0.001800
   1096 HB1        41.9100   51.1900   60.6000 hc       122 PP       0.063200
   1097 HB2        42.3400   49.9500   59.3300 hc       122 PP       0.063200
   1098 HB3        43.6000   50.9500   60.1200 hc       122 PP       0.063200
   1099 C2         42.4900   53.4000   58.7200 c3       123 PP      -0.006100
   1100 C1         41.3400   53.8600   59.7100 c3       123 PP       0.076800
   1101 CB         41.9700   54.1700   61.0900 c3       123 PP      -0.265900
   1102 H21        43.4900   53.6600   59.0800 hc       123 PP       0.001900
   1103 H22        42.3700   53.9100   57.7600 hc       123 PP       0.001900
   1104 H1         40.5100   53.1500   59.8200 hc       123 PP       0.001800
   1105 HB1        41.2400   54.7300   61.6800 hc       123 PP       0.063200
   1106 HB2        42.1700   53.3000   61.7200 hc       123 PP       0.063200
   1107 HB3        42.9500   54.6600   60.9700 hc       123 PP       0.063200
   1108 C2         40.5700   55.1000   59.2300 c3       124 PP      -0.006100
   1109 C1         39.6800   55.0200   57.9400 c3       124 PP       0.076800
   1110 CB         38.2700   54.4100   58.3900 c3       124 PP      -0.265900
   1111 H21        39.9100   55.3400   60.0700 hc       124 PP       0.001900
   1112 H22        41.2600   55.9200   59.0100 hc       124 PP       0.001900
   1113 H1         40.1700   54.3100   57.2600 hc       124 PP       0.001800
   1114 HB1        38.4600   53.8100   59.2900 hc       124 PP       0.063200
   1115 HB2        37.5700   55.2200   58.6600 hc       124 PP       0.063200
   1116 HB3        37.7700   53.8200   57.6200 hc       124 PP       0.063200
   1117 C2         39.4200   56.3700   57.0700 c3       125 PP      -0.006100
   1118 C1         38.7600   56.3100   55.7400 c3       125 PP       0.076800
   1119 CB         38.3400   57.6900   55.2500 c3       125 PP      -0.265900
   1120 H21        38.8700   57.1800   57.5700 hc       125 PP       0.001900
   1121 H22        40.3900   56.8300   56.8600 hc       125 PP       0.001900
   1122 H1         37.8300   55.7400   55.8500 hc       125 PP       0.001800
   1123 HB1        39.0100   58.2400   54.5800 hc       125 PP       0.063200
   1124 HB2        37.5200   57.4100   54.5700 hc       125 PP       0.063200
   1125 HB3        37.7800   58.2800   55.9800 hc       125 PP       0.063200
   1126 C2         39.6500   55.5300   54.6600 c3       126 PP      -0.006100
   1127 C1         39.0700   54.4900   53.6700 c3       126 PP       0.076800
   1128 CB         38.3700   53.2700   54.4100 c3       126 PP      -0.265900
   1129 H21        40.2000   56.3200   54.1400 hc       126 PP       0.001900
   1130 H22        40.4900   55.0200   55.1400 hc       126 PP       0.001900
   1131 H1         39.9100   54.1100   53.0800 hc       126 PP       0.001800
   1132 HB1        39.0300   52.8800   55.2000 hc       126 PP       0.063200
   1133 HB2        37.4300   53.5200   54.9200 hc       126 PP       0.063200
   1134 HB3        38.0500   52.4200   53.7900 hc       126 PP       0.063200
   1135 C2         38.0200   55.2100   52.7300 c3       127 PP      -0.006100
   1136 C1         37.4000   54.3700   51.5800 c3       127 PP       0.076800
   1137 CB         36.6500   55.2500   50.5900 c3       127 PP      -0.265900
   1138 H21        37.1400   55.3900   53.3600 hc       127 PP       0.001900
   1139 H22        38.3700   56.2000   52.4000 hc       127 PP       0.001900
   1140 H1         36.6700   53.7200   52.0800 hc       127 PP       0.001800
   1141 HB1        35.7100   55.4800   51.1100 hc       127 PP       0.063200
   1142 HB2        37.2200   56.1700   50.4300 hc       127 PP       0.063200
   1143 HB3        36.4200   54.8100   49.6100 hc       127 PP       0.063200
   1144 C2         38.3800   53.3500   50.7500 c3       128 PP      -0.006100
   1145 C1         37.7900   51.9200   50.7200 c3       128 PP       0.076800
   1146 CB         36.4800   51.8000   49.8500 c3       128 PP      -0.265900
   1147 H21        38.5100   53.6900   49.7200 hc       128 PP       0.001900
   1148 H22        39.3900   53.2800   51.1800 hc       128 PP       0.001900
   1149 H1         37.5100   51.6200   51.7400 hc       128 PP       0.001800
   1150 HB1        35.7000   52.5600   49.9800 hc       128 PP       0.063200
   1151 HB2        36.7300   51.8100   48.7800 hc       128 PP       0.063200
   1152 HB3        35.9900   50.8300   49.9900 hc       128 PP       0.063200
   1153 C2         38.7400   50.7800   50.1300 c3       129 PP      -0.006100
   1154 C1         39.8400   50.2700   51.1400 c3       129 PP       0.076800
   1155 CB         39.3100   49.2200   52.1600 c3       129 PP      -0.265900
   1156 H21        38.1100   49.9500   49.7800 hc       129 PP       0.001900
   1157 H22        39.2300   51.2300   49.2500 hc       129 PP       0.001900
   1158 H1         40.1700   51.1700   51.6800 hc       129 PP       0.001800
   1159 HB1        39.5300   48.1500   52.0000 hc       129 PP       0.063200
   1160 HB2        39.7600   49.3800   53.1400 hc       129 PP       0.063200
   1161 HB3        38.2200   49.2500   52.2900 hc       129 PP       0.063200
   1162 C2         41.1000   49.6700   50.3400 c3       130 PP      -0.006100
   1163 C1         42.4200   49.8500   51.1200 c3       130 PP       0.076800
   1164 CB         42.8600   51.3500   51.2900 c3       130 PP      -0.265900
   1165 H21        40.8400   48.6300   50.1000 hc       130 PP       0.001900
   1166 H22        41.2200   50.2400   49.4100 hc       130 PP       0.001900
   1167 H1         43.1100   49.5600   50.3200 hc       130 PP       0.001800
   1168 HB1        42.3400   51.6400   52.2100 hc       130 PP       0.063200
   1169 HB2        43.9100   51.4100   51.6000 hc       130 PP       0.063200
   1170 HB3        42.5600   52.0500   50.5000 hc       130 PP       0.063200
   1171 C2         42.7000   49.0300   52.4300 c3       131 PP      -0.006100
   1172 C1         42.7200   47.5000   52.4200 c3       131 PP       0.076800
   1173 CB         43.5700   46.9800   51.3300 c3       131 PP      -0.265900
   1174 H21        43.7200   49.3300   52.7200 hc       131 PP       0.001900
   1175 H22        42.0400   49.3000   53.2600 hc       131 PP       0.001900
   1176 H1         41.7100   47.2600   52.0900 hc       131 PP       0.001800
   1177 HB1        42.9500   46.5900   50.5200 hc       131 PP       0.063200
   1178 HB2        44.2300   47.7600   50.9100 hc       131 PP       0.063200
   1179 HB3        44.2600   46.1900   51.6400 hc       131 PP       0.063200
   1180 C2         42.9800   46.8900   53.8300 c3       132 PP      -0.006100
   1181 C1         41.6500   46.8200   54.6300 c3       132 PP       0.076800
   1182 CB         40.8900   45.5500   54.2300 c3       132 PP      -0.265900
   1183 H21        43.4200   45.8800   53.8100 hc       132 PP       0.001900
   1184 H22        43.5900   47.6600   54.3100 hc       132 PP       0.001900
   1185 H1         40.9800   47.6000   54.2200 hc       132 PP       0.001800
   1186 HB1        39.8700   45.4700   54.6200 hc       132 PP       0.063200
   1187 HB2        40.8300   45.4800   53.1400 hc       132 PP       0.063200
   1188 HB3        41.3900   44.6700   54.6500 hc       132 PP       0.063200
   1189 C2         41.7700   46.9800   56.2300 c3       133 PP      -0.006100
   1190 C1         40.4400   47.2800   57.0300 c3       133 PP       0.076800
   1191 CB         40.6400   46.9200   58.5000 c3       133 PP      -0.265900
   1192 H21        42.1600   46.0500   56.6800 hc       133 PP       0.001900
   1193 H22        42.5000   47.7600   56.4600 hc       133 PP       0.001900
   1194 H1         39.6700   46.6400   56.5900 hc       133 PP       0.001800
   1195 HB1        40.8300   45.8400   58.5800 hc       133 PP       0.063200
   1196 HB2        41.3100   47.5500   59.1000 hc       133 PP       0.063200
   1197 HB3        39.6400   47.1400   58.9000 hc       133 PP       0.063200
   1198 C2         40.0700   48.8600   56.9000 c3       134 PP      -0.006100
   1199 C1         38.6300   49.2600   57.1500 c3       134 PP       0.076800
   1200 CB         38.5800   50.6900   57.9000 c3       134 PP      -0.265900
   1201 H21        40.7200   49.4700   57.5400 hc       134 PP       0.001900
   1202 H22        40.2900   49.3300   55.9300 hc       134 PP       0.001900
   1203 H1         38.1600   48.5800   57.8600 hc       134 PP       0.001800
   1204 HB1        39.2100   51.4000   57.3500 hc       134 PP       0.063200
   1205 HB2        37.5400   51.0100   58.0600 hc       134 PP       0.063200
   1206 HB3        39.0100   50.6000   58.9000 hc       134 PP       0.063200
   1207 C2         37.8500   49.2200   55.8600 c3       135 PP      -0.006100
   1208 C1         36.3300   49.5800   55.8400 c3       135 PP       0.076800
   1209 CB         35.8900   49.5100   54.2900 c3       135 PP      -0.265900
   1210 H21        38.3000   49.8100   55.0500 hc       135 PP       0.001900
   1211 H22        37.9400   48.2000   55.4600 hc       135 PP       0.001900
   1212 H1         36.0900   50.5600   56.2600 hc       135 PP       0.001800
   1213 HB1        34.8400   49.7600   54.1400 hc       135 PP       0.063200
   1214 HB2        36.5800   50.1200   53.6900 hc       135 PP       0.063200
   1215 HB3        36.1100   48.5300   53.8400 hc       135 PP       0.063200
   1216 C2         35.6000   48.5500   56.8300 c3       136 PP      -0.006100
   1217 C1         34.1000   48.4200   56.7200 c3       136 PP       0.076800
   1218 CB         33.6600   47.4400   55.6200 c3       136 PP      -0.265900
   1219 H21        36.1000   47.5800   56.7400 hc       136 PP       0.001900
   1220 H22        35.8600   48.9100   57.8300 hc       136 PP       0.001900
   1221 H1         33.7100   49.4200   56.4900 hc       136 PP       0.001800
   1222 HB1        34.1300   46.4600   55.8000 hc       136 PP       0.063200
   1223 HB2        32.6100   47.1500   55.7400 hc       136 PP       0.063200
   1224 HB3        33.8900   47.7800   54.6000 hc       136 PP       0.063200
   1225 C2         33.3500   48.0100   58.0800 c3       137 PP      -0.006100
   1226 C1         33.4900   48.8900   59.3200 c3       137 PP       0.076800
   1227 CB         33.4100   50.4500   59.0800 c3       137 PP      -0.265900
   1228 H21        32.2900   47.9700   57.8200 hc       137 PP       0.001900
   1229 H22        33.5900   46.9500   58.1700 hc       137 PP       0.001900
   1230 H1         34.4800   48.7500   59.7500 hc       137 PP       0.001800
   1231 HB1        34.2200   50.6700   58.3800 hc       137 PP       0.063200
   1232 HB2        32.4800   50.5900   58.5200 hc       137 PP       0.063200
   1233 HB3        33.4700   51.0800   59.9800 hc       137 PP       0.063200
   1234 C2         32.3800   48.6000   60.4100 c3       138 PP      -0.006100
   1235 C1         32.7400   48.9800   61.9000 c3       138 PP       0.076800
   1236 CB         31.6600   49.9600   62.4800 c3       138 PP      -0.265900
   1237 H21        31.4900   49.1800   60.1300 hc       138 PP       0.001900
   1238 H22        32.1200   47.5400   60.5000 hc       138 PP       0.001900
   1239 H1         33.6800   49.5400   61.9200 hc       138 PP       0.001800
   1240 HB1        31.9700   50.1700   63.5100 hc       138 PP       0.063200
   1241 HB2        31.5600   50.9000   61.9300 hc       138 PP       0.063200
   1242 HB3        30.7300   49.3800   62.4800 hc       138 PP       0.063200
   1243 C2         32.9100   47.7300   62.7900 c3       139 PP      -0.006100
   1244 C1         34.2500   47.0800   62.6000 c3       139 PP       0.076800
   1245 CB         35.0700   47.2600   63.9000 c3       139 PP      -0.265900
   1246 H21        32.7800   48.0200   63.8400 hc       139 PP       0.001900
   1247 H22        32.0400   47.0600   62.7700 hc       139 PP       0.001900
   1248 H1         34.8900   47.5200   61.8300 hc       139 PP       0.001800
   1249 HB1        35.6700   48.1700   63.8400 hc       139 PP       0.063200
   1250 HB2        34.4800   47.1700   64.8300 hc       139 PP       0.063200
   1251 HB3        35.8700   46.5100   63.9800 hc       139 PP       0.063200
   1252 C2         34.0300   45.6300   62.2300 c3       140 PP      -0.006100
   1253 C1         35.1800   44.9000   61.5700 c3       140 PP       0.076800
   1254 CB         35.1400   43.3500   61.8700 c3       140 PP      -0.265900
   1255 H21        33.7700   45.1200   63.1700 hc       140 PP       0.001900
   1256 H22        33.2300   45.5400   61.4900 hc       140 PP       0.001900
   1257 H1         36.0600   45.4500   61.9100 hc       140 PP       0.001800
   1258 HB1        34.6100   43.0700   62.7800 hc       140 PP       0.063200
   1259 HB2        34.6400   42.7600   61.0900 hc       140 PP       0.063200
   1260 HB3        36.1900   43.0300   61.9800 hc       140 PP       0.063200
   1261 C2         35.2500   45.0700   60.0400 c3       141 PP      -0.006100
   1262 C1         36.2700   44.2100   59.1900 c3       141 PP       0.076800
   1263 CB         36.3200   44.7100   57.7400 c3       141 PP      -0.265900
   1264 H21        34.2300   44.8100   59.7300 hc       141 PP       0.001900
   1265 H22        35.3900   46.1200   59.7600 hc       141 PP       0.001900
   1266 H1         35.8500   43.2000   59.0600 hc       141 PP       0.001800
   1267 HB1        35.3200   44.8500   57.3200 hc       141 PP       0.063200
   1268 HB2        36.8400   45.6700   57.6900 hc       141 PP       0.063200
   1269 HB3        36.7600   44.0600   56.9800 hc       141 PP       0.063200
   1270 C2         37.6900   44.2100   59.8600 c3       142 PP      -0.006100
   1271 C1         38.5200   42.9900   59.5000 c3       142 PP       0.076800
   1272 CB         39.9900   43.4000   59.7200 c3       142 PP      -0.265900
   1273 H21        38.1200   45.1300   59.4400 hc       142 PP       0.001900
   1274 H22        37.7400   44.3800   60.9400 hc       142 PP       0.001900
   1275 H1         38.3700   42.8600   58.4200 hc       142 PP       0.001800
   1276 HB1        40.4200   43.4400   58.7100 hc       142 PP       0.063200
   1277 HB2        40.2400   44.3300   60.2500 hc       142 PP       0.063200
   1278 HB3        40.5900   42.6100   60.1900 hc       142 PP       0.063200
   1279 C2         38.0400   41.6900   60.2900 c3       143 PP      -0.006100
   1280 C1         38.5700   40.3700   59.7000 c3       143 PP       0.076800
   1281 CB         38.5800   39.2400   60.7000 c3       143 PP      -0.265900
   1282 H21        38.2200   41.7600   61.3700 hc       143 PP       0.001900
   1283 H22        36.9500   41.6300   60.1200 hc       143 PP       0.001900
   1284 H1         39.6300   40.6100   59.5500 hc       143 PP       0.001800
   1285 HB1        39.4300   38.5700   60.5800 hc       143 PP       0.063200
   1286 HB2        38.6200   39.6000   61.7400 hc       143 PP       0.063200
   1287 HB3        37.6800   38.6400   60.5300 hc       143 PP       0.063200
   1288 C2         38.1300   40.0400   58.2500 c3       144 PP      -0.006100
   1289 C1         39.2700   39.5700   57.2200 c3       144 PP       0.076800
   1290 CB         39.8400   38.1900   57.6600 c3       144 PP      -0.265900
   1291 H21        37.3900   39.2200   58.2800 hc       144 PP       0.001900
   1292 H22        37.5100   40.8600   57.8600 hc       144 PP       0.001900
   1293 H1         40.1100   40.2700   57.2900 hc       144 PP       0.001800
   1294 HB1        40.6500   38.3000   58.4000 hc       144 PP       0.063200
   1295 HB2        39.1100   37.5900   58.2300 hc       144 PP       0.063200
   1296 HB3        40.2000   37.5900   56.8200 hc       144 PP       0.063200
   1297 C2         38.8300   39.5600   55.8100 c3       145 PP      -0.006100
   1298 C1         38.6900   40.9500   55.1700 c3       145 PP       0.076800
   1299 CB         39.9500   41.8200   55.2400 c3       145 PP      -0.265900
   1300 H21        39.4500   38.9400   55.1500 hc       145 PP       0.001900
   1301 H22        37.8400   39.1100   55.7700 hc       145 PP       0.001900
   1302 H1         37.8800   41.5400   55.6200 hc       145 PP       0.001800
   1303 HB1        39.8300   42.6800   54.5700 hc       145 PP       0.063200
   1304 HB2        40.1700   42.1700   56.2500 hc       145 PP       0.063200
   1305 HB3        40.7700   41.2100   54.8200 hc       145 PP       0.063200
   1306 C2         38.2800   40.8700   53.6100 c3       146 PP      -0.006100
   1307 C1         36.7900   40.6600   53.3400 c3       146 PP       0.076800
   1308 CB         35.8800   41.8400   53.8800 c3       146 PP      -0.265900
   1309 H21        38.6600   41.7700   53.1200 hc       146 PP       0.001900
   1310 H22        38.7800   39.9700   53.2400 hc       146 PP       0.001900
   1311 H1         36.4900   39.7900   53.9300 hc       146 PP       0.001800
   1312 HB1        35.6100   41.7000   54.9300 hc       146 PP       0.063200
   1313 HB2        36.4300   42.7900   53.8200 hc       146 PP       0.063200
   1314 HB3        34.8800   41.8700   53.4400 hc       146 PP       0.063200
   1315 C2         36.5400   40.2400   51.8300 c3       147 PP      -0.006100
   1316 C1         35.1000   40.2600   51.3300 c3       147 PP       0.076800
   1317 CB         35.1800   39.9200   49.8200 c3       147 PP      -0.265900
   1318 H21        37.0600   40.9200   51.1400 hc       147 PP       0.001900
   1319 H22        37.0700   39.3000   51.6600 hc       147 PP       0.001900
   1320 H1         34.7500   41.3000   51.4000 hc       147 PP       0.001800
   1321 HB1        35.6100   38.9300   49.6400 hc       147 PP       0.063200
   1322 HB2        34.1800   39.9500   49.3700 hc       147 PP       0.063200
   1323 HB3        35.7200   40.6600   49.2200 hc       147 PP       0.063200
   1324 C2         34.2400   39.1500   52.0100 c3       148 PP      -0.006100
   1325 C1         32.6700   39.1800   51.6500 c3       148 PP       0.076800
   1326 CB         32.0100   37.8000   52.0200 c3       148 PP      -0.265900
   1327 H21        34.5600   38.1000   51.8900 hc       148 PP       0.001900
   1328 H22        34.2400   39.3900   53.0800 hc       148 PP       0.001900
   1329 H1         32.5000   39.4400   50.5900 hc       148 PP       0.001800
   1330 HB1        32.3300   37.6000   53.0500 hc       148 PP       0.063200
   1331 HB2        30.9200   37.9000   52.0600 hc       148 PP       0.063200
   1332 HB3        32.3300   36.9300   51.4300 hc       148 PP       0.063200
   1333 C2         32.0000   40.2600   52.5600 c3       149 PP      -0.006100
   1334 C1         30.5300   40.6700   52.1100 c3       149 PP       0.076800
   1335 CB         30.0200   41.6600   53.1500 c3       149 PP      -0.265900
   1336 H21        31.8500   39.8300   53.5600 hc       149 PP       0.001900
   1337 H22        32.6600   41.1200   52.7000 hc       149 PP       0.001900
   1338 H1         29.8700   39.8000   52.2200 hc       149 PP       0.001800
   1339 HB1        30.4600   41.4400   54.1300 hc       149 PP       0.063200
   1340 HB2        30.3300   42.6800   52.8700 hc       149 PP       0.063200
   1341 HB3        28.9300   41.6200   53.2300 hc       149 PP       0.063200
   1342 C2         30.4800   41.3900   50.7300 c3       150 PP      -0.006100
   1343 C1         29.2100   42.2800   50.4200 c3       150 PP       0.076800
   1344 CB         29.4400   43.8500   50.3300 c3       150 PP      -0.265900
   1345 H21        30.5900   40.6700   49.9100 hc       150 PP       0.001900
   1346 H22        31.3500   42.0400   50.6500 hc       150 PP       0.001900
   1347 H1         28.6800   41.9300   49.5200 hc       150 PP       0.001800
   1348 HB1        29.7000   44.2900   51.3000 hc       150 PP       0.063200
   1349 HB2        30.2600   44.1300   49.6500 hc       150 PP       0.063200
   1350 HB3        28.5500   44.3700   49.9700 hc       150 PP       0.063200
   1351 C2         42.9300   41.9300   50.4700 c3       151 PP      -0.006100
   1352 C1         42.1400   42.2400   51.7400 c3       151 PP       0.076800
   1353 CB         43.1200   42.9400   52.7500 c3       151 PP      -0.265900
   1354 H21        43.3300   40.9200   50.6400 hc       151 PP       0.001900
   1355 H22        43.8500   42.5200   50.3700 hc       151 PP       0.001900
   1356 H1         41.6800   41.3800   52.2400 hc       151 PP       0.001800
   1357 HB1        42.4600   43.1300   53.6100 hc       151 PP       0.063200
   1358 HB2        43.9700   42.3300   53.0800 hc       151 PP       0.063200
   1359 HB3        43.4100   43.8600   52.2300 hc       151 PP       0.063200
   1360 C2         40.9400   43.1900   51.4900 c3       152 PP      -0.006100
   1361 C1         39.9500   42.8400   50.3200 c3       152 PP       0.076800
   1362 CB         39.8100   41.2700   50.1000 c3       152 PP      -0.265900
   1363 H21        40.4000   43.2700   52.4400 hc       152 PP       0.001900
   1364 H22        41.3700   44.1900   51.3500 hc       152 PP       0.001900
   1365 H1         40.4000   43.2400   49.4000 hc       152 PP       0.001800
   1366 HB1        38.9800   41.0600   49.4200 hc       152 PP       0.063200
   1367 HB2        40.6800   40.8500   49.5800 hc       152 PP       0.063200
   1368 HB3        39.5900   40.6900   51.0000 hc       152 PP       0.063200
   1369 C2         38.5700   43.5600   50.5700 c3       153 PP      -0.006100
   1370 C1         38.6700   45.0700   50.8500 c3       153 PP       0.076800
   1371 CB         39.6000   45.8200   49.8100 c3       153 PP      -0.265900
   1372 H21        37.9100   43.4300   49.7000 hc       153 PP       0.001900
   1373 H22        38.0500   43.0900   51.4100 hc       153 PP       0.001900
   1374 H1         39.0800   45.1700   51.8600 hc       153 PP       0.001800
   1375 HB1        39.4900   46.9000   49.9400 hc       153 PP       0.063200
   1376 HB2        40.6700   45.6000   49.8100 hc       153 PP       0.063200
   1377 HB3        39.2500   45.5800   48.7900 hc       153 PP       0.063200
   1378 C2         37.3400   45.7900   50.9200 c3       154 PP      -0.006100
   1379 C1         36.3300   45.2500   51.9400 c3       154 PP       0.076800
   1380 CB         36.8900   45.4500   53.3700 c3       154 PP      -0.265900
   1381 H21        37.5200   46.8700   51.0000 hc       154 PP       0.001900
   1382 H22        36.9400   45.6500   49.9000 hc       154 PP       0.001900
   1383 H1         36.1500   44.1900   51.7400 hc       154 PP       0.001800
   1384 HB1        36.1300   45.1400   54.1000 hc       154 PP       0.063200
   1385 HB2        37.8200   44.8900   53.5000 hc       154 PP       0.063200
   1386 HB3        37.1100   46.5100   53.5800 hc       154 PP       0.063200
   1387 C2         34.9800   46.0800   51.9100 c3       155 PP      -0.006100
   1388 C1         34.1200   45.6900   50.6400 c3       155 PP       0.076800
   1389 CB         33.7300   44.1900   50.5300 c3       155 PP      -0.265900
   1390 H21        34.4200   45.9000   52.8400 hc       155 PP       0.001900
   1391 H22        35.1900   47.1500   52.0200 hc       155 PP       0.001900
   1392 H1         34.7200   46.0000   49.7800 hc       155 PP       0.001800
   1393 HB1        33.0700   44.1400   49.6500 hc       155 PP       0.063200
   1394 HB2        34.5200   43.4500   50.3500 hc       155 PP       0.063200
   1395 HB3        33.1800   43.8000   51.3900 hc       155 PP       0.063200
   1396 C2         32.7300   46.5500   50.4900 c3       156 PP      -0.006100
   1397 C1         32.8300   48.0700   50.5700 c3       156 PP       0.076800
   1398 CB         33.8700   48.6800   49.5900 c3       156 PP      -0.265900
   1399 H21        32.2900   46.2900   49.5200 hc       156 PP       0.001900
   1400 H22        32.0200   46.2300   51.2600 hc       156 PP       0.001900
   1401 H1         33.1100   48.3500   51.5900 hc       156 PP       0.001800
   1402 HB1        33.7300   48.3100   48.5700 hc       156 PP       0.063200
   1403 HB2        33.7100   49.7700   49.6500 hc       156 PP       0.063200
   1404 HB3        34.9200   48.5500   49.8600 hc       156 PP       0.063200
   1405 C2         31.4700   48.6600   50.2200 c3       157 PP      -0.006100
   1406 C1         30.2900   48.2400   51.1800 c3       157 PP       0.076800
   1407 CB         30.7400   48.5400   52.6700 c3       157 PP      -0.265900
   1408 H21        31.5600   49.7500   50.2300 hc       157 PP       0.001900
   1409 H22        31.1300   48.3300   49.2300 hc       157 PP       0.001900
   1410 H1         30.2100   47.1900   50.8900 hc       157 PP       0.001800
   1411 HB1        31.4000   47.7500   53.0500 hc       157 PP       0.063200
   1412 HB2        31.2900   49.4600   52.9200 hc       157 PP       0.063200
   1413 HB3        29.8500   48.6300   53.3000 hc       157 PP       0.063200
   1414 C2         28.9100   48.8900   50.8000 c3       158 PP      -0.006100
   1415 C1         28.8500   50.4500   50.5100 c3       158 PP       0.076800
   1416 CB         27.4100   50.7100   50.1600 c3       158 PP      -0.265900
   1417 H21        28.6500   48.5300   49.8000 hc       158 PP       0.001900
   1418 H22        28.1000   48.5300   51.4500 hc       158 PP       0.001900
   1419 H1         29.4900   50.6400   49.6300 hc       158 PP       0.001800
   1420 HB1        27.0300   51.7000   49.8800 hc       158 PP       0.063200
   1421 HB2        27.1800   50.1100   49.2700 hc       158 PP       0.063200
   1422 HB3        26.6600   50.3500   50.8600 hc       158 PP       0.063200
   1423 C2         29.2900   51.2900   51.7200 c3       159 PP      -0.006100
   1424 C1         29.0400   52.7800   51.4700 c3       159 PP       0.076800
   1425 CB         27.8300   53.2500   52.3200 c3       159 PP      -0.265900
   1426 H21        28.8800   50.7500   52.5800 hc       159 PP       0.001900
   1427 H22        30.3700   51.1700   51.8600 hc       159 PP       0.001900
   1428 H1         28.8700   53.0000   50.4100 hc       159 PP       0.001800
   1429 HB1        27.4500   54.2200   51.9900 hc       159 PP       0.063200
   1430 HB2        26.9900   52.5400   52.3700 hc       159 PP       0.063200
   1431 HB3        28.2300   53.2300   53.3400 hc       159 PP       0.063200
   1432 C2         30.2600   53.7300   51.8500 c3       160 PP      -0.006100
   1433 C1         31.5400   53.4600   51.0400 c3       160 PP       0.076800
   1434 CB         31.4600   54.0100   49.6300 c3       160 PP      -0.265900
   1435 H21        30.0000   54.7700   51.6000 hc       160 PP       0.001900
   1436 H22        30.3800   53.7400   52.9400 hc       160 PP       0.001900
   1437 H1         31.6700   52.3800   50.9000 hc       160 PP       0.001800
   1438 HB1        32.3600   53.6400   49.1200 hc       160 PP       0.063200
   1439 HB2        30.5300   53.6100   49.2200 hc       160 PP       0.063200
   1440 HB3        31.4100   55.1000   49.5400 hc       160 PP       0.063200
   1441 C2         32.8200   53.9400   51.8000 c3       161 PP      -0.006100
   1442 C1         33.3100   52.8500   52.8900 c3       161 PP       0.076800
   1443 CB         33.6900   51.4500   52.2000 c3       161 PP      -0.265900
   1444 H21        33.6200   54.1200   51.0700 hc       161 PP       0.001900
   1445 H22        32.6500   54.9300   52.2300 hc       161 PP       0.001900
   1446 H1         32.4300   52.6000   53.5000 hc       161 PP       0.001800
   1447 HB1        33.4200   50.6100   52.8400 hc       161 PP       0.063200
   1448 HB2        33.1500   51.1800   51.2800 hc       161 PP       0.063200
   1449 HB3        34.7700   51.4000   51.9800 hc       161 PP       0.063200
   1450 C2         34.3900   53.3400   53.9200 c3       162 PP      -0.006100
   1451 C1         33.9200   53.7800   55.2800 c3       162 PP       0.076800
   1452 CB         34.5700   53.0400   56.4700 c3       162 PP      -0.265900
   1453 H21        35.1000   52.5200   54.0600 hc       162 PP       0.001900
   1454 H22        34.9800   54.1100   53.4200 hc       162 PP       0.001900
   1455 H1         32.8300   53.7500   55.3800 hc       162 PP       0.001800
   1456 HB1        34.0000   53.3300   57.3600 hc       162 PP       0.063200
   1457 HB2        34.4800   51.9600   56.3200 hc       162 PP       0.063200
   1458 HB3        35.6100   53.3300   56.6800 hc       162 PP       0.063200
   1459 C2         34.2200   55.2600   55.5800 c3       163 PP      -0.006100
   1460 C1         33.5900   56.2900   54.6000 c3       163 PP       0.076800
   1461 CB         32.0200   56.2400   54.7100 c3       163 PP      -0.265900
   1462 H21        33.9900   55.6300   56.5900 hc       163 PP       0.001900
   1463 H22        35.3100   55.3700   55.4700 hc       163 PP       0.001900
   1464 H1         33.9600   56.0100   53.6100 hc       163 PP       0.001800
   1465 HB1        31.7100   57.2000   54.2700 hc       163 PP       0.063200
   1466 HB2        31.6100   55.4600   54.0600 hc       163 PP       0.063200
   1467 HB3        31.7800   56.2800   55.7800 hc       163 PP       0.063200
   1468 C2         34.1500   57.7000   55.0100 c3       164 PP      -0.006100
   1469 C1         34.0400   58.7300   53.9200 c3       164 PP       0.076800
   1470 CB         34.3600   60.2000   54.5300 c3       164 PP      -0.265900
   1471 H21        33.5500   58.0400   55.8600 hc       164 PP       0.001900
   1472 H22        35.1700   57.5500   55.3800 hc       164 PP       0.001900
   1473 H1         33.0300   58.8100   53.5000 hc       164 PP       0.001800
   1474 HB1        34.0100   60.4200   55.5400 hc       164 PP       0.063200
   1475 HB2        35.4300   60.4300   54.5600 hc       164 PP       0.063200
   1476 HB3        33.8400   61.0300   54.0300 hc       164 PP       0.063200
   1477 C2         35.0300   58.3900   52.7800 c3       165 PP      -0.006100
   1478 C1         34.4600   58.6200   51.3000 c3       165 PP       0.076800
   1479 CB         33.2400   57.6000   51.0800 c3       165 PP      -0.265900
   1480 H21        35.9100   59.0200   52.9200 hc       165 PP       0.001900
   1481 H22        35.4600   57.4000   52.9400 hc       165 PP       0.001900
   1482 H1         35.1100   58.0600   50.6100 hc       165 PP       0.001800
   1483 HB1        32.9600   57.4900   50.0200 hc       165 PP       0.063200
   1484 HB2        33.6900   56.6300   51.3200 hc       165 PP       0.063200
   1485 HB3        32.3600   57.6700   51.7300 hc       165 PP       0.063200
   1486 C2         34.2100   60.1300   50.8100 c3       166 PP      -0.006100
   1487 C1         35.4100   61.1500   50.9500 c3       166 PP       0.076800
   1488 CB         36.4700   60.7600   49.8700 c3       166 PP      -0.265900
   1489 H21        33.9300   60.0600   49.7500 hc       166 PP       0.001900
   1490 H22        33.3200   60.3800   51.4000 hc       166 PP       0.001900
   1491 H1         35.8100   60.9800   51.9500 hc       166 PP       0.001800
   1492 HB1        37.4100   61.3100   50.0100 hc       166 PP       0.063200
   1493 HB2        36.6500   59.6800   49.8300 hc       166 PP       0.063200
   1494 HB3        36.0300   60.9600   48.8900 hc       166 PP       0.063200
   1495 C2         34.9900   62.6700   50.9000 c3       167 PP      -0.006100
   1496 C1         34.3300   63.3300   52.2200 c3       167 PP       0.076800
   1497 CB         35.4600   63.7200   53.2700 c3       167 PP      -0.265900
   1498 H21        35.8900   63.2500   50.6300 hc       167 PP       0.001900
   1499 H22        34.3500   62.6600   50.0000 hc       167 PP       0.001900
   1500 H1         33.6600   62.5800   52.6600 hc       167 PP       0.001800
   1501 HB1        35.2000   63.7900   54.3300 hc       167 PP       0.063200
   1502 HB2        36.2700   62.9900   53.3700 hc       167 PP       0.063200
   1503 HB3        36.0000   64.6600   53.1100 hc       167 PP       0.063200
   1504 C2         33.4700   64.5000   51.6900 c3       168 PP      -0.006100
   1505 C1         32.2700   64.9400   52.6400 c3       168 PP       0.076800
   1506 CB         32.6500   64.9000   54.1300 c3       168 PP      -0.265900
   1507 H21        34.2300   65.2800   51.5700 hc       168 PP       0.001900
   1508 H22        33.0200   64.2900   50.7100 hc       168 PP       0.001900
   1509 H1         31.4600   64.2100   52.5300 hc       168 PP       0.001800
   1510 HB1        33.4900   65.5900   54.2300 hc       168 PP       0.063200
   1511 HB2        31.8000   65.2200   54.7500 hc       168 PP       0.063200
   1512 HB3        32.9800   63.9000   54.4400 hc       168 PP       0.063200
   1513 C2         31.7200   66.3000   52.1800 c3       169 PP      -0.006100
   1514 C1         31.2400   66.4800   50.6800 c3       169 PP       0.076800
   1515 CB         30.0800   65.5400   50.3000 c3       169 PP      -0.265900
   1516 H21        30.8800   66.6300   52.8000 hc       169 PP       0.001900
   1517 H22        32.4900   67.0700   52.3000 hc       169 PP       0.001900
   1518 H1         32.0800   66.2700   50.0100 hc       169 PP       0.001800
   1519 HB1        30.3000   64.4700   50.2800 hc       169 PP       0.063200
   1520 HB2        29.3200   65.7500   51.0600 hc       169 PP       0.063200
   1521 HB3        29.5600   65.8900   49.4000 hc       169 PP       0.063200
   1522 C2         30.7400   67.9600   50.4000 c3       170 PP      -0.006100
   1523 C1         31.8100   69.1000   50.7300 c3       170 PP       0.076800
   1524 CB         33.1300   68.9000   49.9800 c3       170 PP      -0.265900
   1525 H21        30.5700   67.9200   49.3200 hc       170 PP       0.001900
   1526 H22        29.7500   68.1800   50.8200 hc       170 PP       0.001900
   1527 H1         32.0200   69.1800   51.8000 hc       170 PP       0.001800
   1528 HB1        33.6600   68.0000   50.2900 hc       170 PP       0.063200
   1529 HB2        33.1300   69.1100   48.9000 hc       170 PP       0.063200
   1530 HB3        33.7200   69.7200   50.4000 hc       170 PP       0.063200
   1531 C2         31.1800   70.5500   50.2900 c3       171 PP      -0.006100
   1532 C1         31.9100   71.8600   50.5100 c3       171 PP       0.076800
   1533 CB         30.8500   73.0800   50.1900 c3       171 PP      -0.265900
   1534 H21        30.9600   70.4300   49.2200 hc       171 PP       0.001900
   1535 H22        30.2500   70.5400   50.8700 hc       171 PP       0.001900
   1536 H1         32.6500   71.8700   49.7100 hc       171 PP       0.001800
   1537 HB1        31.3400   74.0500   50.0700 hc       171 PP       0.063200
   1538 HB2        30.3100   72.9900   49.2400 hc       171 PP       0.063200
   1539 HB3        30.0200   73.1900   50.9000 hc       171 PP       0.063200
   1540 C2         32.5900   71.9900   51.9000 c3       172 PP      -0.006100
   1541 C1         33.0400   73.4600   52.2400 c3       172 PP       0.076800
   1542 CB         33.6000   73.6200   53.7000 c3       172 PP      -0.265900
   1543 H21        31.8100   71.6700   52.6200 hc       172 PP       0.001900
   1544 H22        33.4200   71.2800   51.9600 hc       172 PP       0.001900
   1545 H1         32.1500   74.1100   52.2700 hc       172 PP       0.001800
   1546 HB1        32.8800   73.3700   54.4900 hc       172 PP       0.063200
   1547 HB2        34.4600   72.9600   53.8200 hc       172 PP       0.063200
   1548 HB3        34.0000   74.6400   53.8100 hc       172 PP       0.063200
   1549 C2         33.9300   74.1300   51.1700 c3       173 PP      -0.006100
   1550 C1         35.4700   73.7500   51.2400 c3       173 PP       0.076800
   1551 CB         35.8500   72.3600   50.6000 c3       173 PP      -0.265900
   1552 H21        33.6800   73.9800   50.1100 hc       173 PP       0.001900
   1553 H22        33.7700   75.1900   51.3700 hc       173 PP       0.001900
   1554 H1         35.8200   73.7400   52.2700 hc       173 PP       0.001800
   1555 HB1        35.3600   72.3200   49.6200 hc       173 PP       0.063200
   1556 HB2        36.9200   72.1300   50.5100 hc       173 PP       0.063200
   1557 HB3        35.3800   71.6000   51.2300 hc       173 PP       0.063200
   1558 C2         36.2300   74.9800   50.5500 c3       174 PP      -0.006100
   1559 C1         36.4300   76.2900   51.4400 c3       174 PP       0.076800
   1560 CB         37.6100   76.1000   52.3400 c3       174 PP      -0.265900
   1561 H21        37.2100   74.6600   50.1700 hc       174 PP       0.001900
   1562 H22        35.7500   75.1900   49.5900 hc       174 PP       0.001900
   1563 H1         35.5300   76.3500   52.0600 hc       174 PP       0.001800
   1564 HB1        37.5300   75.2000   52.9600 hc       174 PP       0.063200
   1565 HB2        38.4900   75.8900   51.7200 hc       174 PP       0.063200
   1566 HB3        37.8000   77.0200   52.9100 hc       174 PP       0.063200
   1567 C2         36.3900   77.6700   50.5700 c3       175 PP      -0.006100
   1568 C1         35.4400   78.7800   51.0600 c3       175 PP       0.076800
   1569 CB         33.9500   78.3500   51.3700 c3       175 PP      -0.265900
   1570 H21        37.4100   78.0700   50.5100 hc       175 PP       0.001900
   1571 H22        36.1700   77.5000   49.5100 hc       175 PP       0.001900
   1572 H1         35.3000   79.4700   50.2200 hc       175 PP       0.001800
   1573 HB1        33.5200   77.5100   50.8100 hc       175 PP       0.063200
   1574 HB2        33.8100   78.1300   52.4300 hc       175 PP       0.063200
   1575 HB3        33.2200   79.1200   51.0900 hc       175 PP       0.063200
   1576 C2         36.0500   -0.4200   52.2900 c3       176 PP      -0.006100
   1577 C1         35.2600    0.8000   52.6600 c3       176 PP       0.076800
   1578 CB         35.1300    0.9000   54.1900 c3       176 PP      -0.265900
   1579 H21        36.2100   -1.0600   53.1700 hc       176 PP       0.001900
   1580 H22        37.0400    0.0000   52.1000 hc       176 PP       0.001900
   1581 H1         34.2400    0.7700   52.2700 hc       176 PP       0.001800
   1582 HB1        34.8200   -0.0600   54.6200 hc       176 PP       0.063200
   1583 HB2        35.9300    1.2400   54.8600 hc       176 PP       0.063200
   1584 HB3        34.2900    1.5700   54.3700 hc       176 PP       0.063200
   1585 C2         35.7800    2.1900   52.1000 c3       177 PP      -0.006100
   1586 C1         35.5900    2.4600   50.4900 c3       177 PP       0.076800
   1587 CB         34.1700    2.2200   49.9500 c3       177 PP      -0.265900
   1588 H21        35.3600    3.0300   52.6700 hc       177 PP       0.001900
   1589 H22        36.8500    2.2300   52.3200 hc       177 PP       0.001900
   1590 H1         36.2200    1.7600   49.9300 hc       177 PP       0.001800
   1591 HB1        33.4600    2.7500   50.6000 hc       177 PP       0.063200
   1592 HB2        33.8900    2.5600   48.9500 hc       177 PP       0.063200
   1593 HB3        33.9200    1.1600   49.9000 hc       177 PP       0.063200
   1594 C2         36.1100    3.9700   50.0600 c3       178 PP      -0.006100
   1595 C1         37.3600    4.5400   50.8000 c3       178 PP       0.076800
   1596 CB         38.5400    3.4700   50.5000 c3       178 PP      -0.265900
   1597 H21        36.2200    3.9200   48.9700 hc       178 PP       0.001900
   1598 H22        35.3300    4.7100   50.2800 hc       178 PP       0.001900
   1599 H1         37.2500    4.5500   51.8900 hc       178 PP       0.001800
   1600 HB1        38.2700    2.4400   50.7900 hc       178 PP       0.063200
   1601 HB2        38.8100    3.4700   49.4400 hc       178 PP       0.063200
   1602 HB3        39.2500    3.8000   51.2700 hc       178 PP       0.063200
   1603 C2         37.6600    6.0000   50.3100 c3       179 PP      -0.006100
   1604 C1         37.1100    7.1700   51.1800 c3       179 PP       0.076800
   1605 CB         38.0700    7.4900   52.3700 c3       179 PP      -0.265900
   1606 H21        38.7400    6.2000   50.2900 hc       179 PP       0.001900
   1607 H22        37.3500    6.1900   49.2700 hc       179 PP       0.001900
   1608 H1         36.1100    6.9400   51.5600 hc       179 PP       0.001800
   1609 HB1        37.7000    8.3700   52.9200 hc       179 PP       0.063200
   1610 HB2        38.0100    6.7100   53.1400 hc       179 PP       0.063200
   1611 HB3        39.0900    7.6000   51.9800 hc       179 PP       0.063200
   1612 C2         36.9800    8.3900   50.2200 c3       180 PP      -0.006100
   1613 C1         36.7100    9.7800   50.7800 c3       180 PP       0.076800
   1614 CB         35.2900    9.8300   51.2100 c3       180 PP      -0.265900
   1615 H21        36.2100    8.1200   49.4900 hc       180 PP       0.001900
   1616 H22        37.9200    8.4300   49.6600 hc       180 PP       0.001900
   1617 H1         36.8200   10.4100   49.8900 hc       180 PP       0.001800
   1618 HB1        34.9200    8.9100   51.6800 hc       180 PP       0.063200
   1619 HB2        35.1200   10.6400   51.9300 hc       180 PP       0.063200
   1620 HB3        34.6700   10.0600   50.3400 hc       180 PP       0.063200
   1621 C2         56.5000   22.5300   62.3900 c3       181 PP      -0.006100
   1622 C1         57.9300   22.3000   61.6500 c3       181 PP       0.076800
   1623 CB         59.0300   22.3600   62.7200 c3       181 PP      -0.265900
   1624 H21        55.9300   23.2100   61.7500 hc       181 PP       0.001900
   1625 H22        55.9100   21.6100   62.3300 hc       181 PP       0.001900
   1626 H1         58.1100   23.2000   61.0600 hc       181 PP       0.001800
   1627 HB1        60.0100   22.0900   62.3000 hc       181 PP       0.063200
   1628 HB2        59.1700   23.3400   63.1800 hc       181 PP       0.063200
   1629 HB3        58.8700   21.5700   63.4700 hc       181 PP       0.063200
   1630 C2         57.8800   20.9500   60.7500 c3       182 PP      -0.006100
   1631 C1         58.9500   20.8900   59.6600 c3       182 PP       0.076800
   1632 CB         58.9300   19.4200   59.0500 c3       182 PP      -0.265900
   1633 H21        57.9800   20.0300   61.3400 hc       182 PP       0.001900
   1634 H22        56.9000   20.9200   60.2700 hc       182 PP       0.001900
   1635 H1         59.9200   21.0000   60.1600 hc       182 PP       0.001800
   1636 HB1        58.0500   19.1200   58.4600 hc       182 PP       0.063200
   1637 HB2        59.7200   19.4900   58.2900 hc       182 PP       0.063200
   1638 HB3        59.2000   18.5900   59.7100 hc       182 PP       0.063200
   1639 C2         58.6100   21.9500   58.5600 c3       183 PP      -0.006100
   1640 C1         59.7800   22.8000   57.9800 c3       183 PP       0.076800
   1641 CB         60.3900   23.6400   59.1600 c3       183 PP      -0.265900
   1642 H21        58.0700   21.4500   57.7400 hc       183 PP       0.001900
   1643 H22        57.8600   22.6500   58.9500 hc       183 PP       0.001900
   1644 H1         59.3500   23.5100   57.2600 hc       183 PP       0.001800
   1645 HB1        61.2600   24.2600   58.9100 hc       183 PP       0.063200
   1646 HB2        59.6300   24.3400   59.5300 hc       183 PP       0.063200
   1647 HB3        60.6500   22.9900   60.0000 hc       183 PP       0.063200
   1648 C2         60.8200   21.8300   57.3400 c3       184 PP      -0.006100
   1649 C1         62.0300   22.5200   56.6000 c3       184 PP       0.076800
   1650 CB         62.9000   21.3400   55.9700 c3       184 PP      -0.265900
   1651 H21        61.2300   21.1800   58.1100 hc       184 PP       0.001900
   1652 H22        60.2900   21.2200   56.5900 hc       184 PP       0.001900
   1653 H1         62.5800   23.0900   57.3600 hc       184 PP       0.001800
   1654 HB1        62.2800   20.6400   55.4000 hc       184 PP       0.063200
   1655 HB2        63.7000   21.6300   55.2700 hc       184 PP       0.063200
   1656 HB3        63.3900   20.7800   56.7700 hc       184 PP       0.063200
   1657 C2         61.7000   23.5000   55.4300 c3       185 PP      -0.006100
   1658 C1         62.8300   24.2900   54.7600 c3       185 PP       0.076800
   1659 CB         62.3000   25.1900   53.6100 c3       185 PP      -0.265900
   1660 H21        61.1700   22.9200   54.6700 hc       185 PP       0.001900
   1661 H22        61.0500   24.2400   55.9100 hc       185 PP       0.001900
   1662 H1         63.4600   23.5800   54.2000 hc       185 PP       0.001800
   1663 HB1        61.7700   26.1100   53.9000 hc       185 PP       0.063200
   1664 HB2        63.0800   25.5600   52.9300 hc       185 PP       0.063200
   1665 HB3        61.6200   24.5900   53.0000 hc       185 PP       0.063200
   1666 C2         63.7300   25.0600   55.8000 c3       186 PP      -0.006100
   1667 C1         64.8600   25.8000   55.1500 c3       186 PP       0.076800
   1668 CB         64.4700   27.2800   54.8100 c3       186 PP      -0.265900
   1669 H21        63.0800   25.6700   56.4300 hc       186 PP       0.001900
   1670 H22        64.1700   24.4100   56.5800 hc       186 PP       0.001900
   1671 H1         65.1600   25.3000   54.2100 hc       186 PP       0.001800
   1672 HB1        65.2300   27.7900   54.2100 hc       186 PP       0.063200
   1673 HB2        63.4700   27.3000   54.3500 hc       186 PP       0.063200
   1674 HB3        64.3200   27.8700   55.7200 hc       186 PP       0.063200
   1675 C2         66.0500   26.0000   56.1500 c3       187 PP      -0.006100
   1676 C1         66.8400   24.6800   56.5100 c3       187 PP       0.076800
   1677 CB         68.2300   24.7600   55.9800 c3       187 PP      -0.265900
   1678 H21        66.7700   26.5700   55.5300 hc       187 PP       0.001900
   1679 H22        65.8700   26.5700   57.0700 hc       187 PP       0.001900
   1680 H1         66.2500   23.9300   55.9700 hc       187 PP       0.001800
   1681 HB1        68.6900   23.7700   55.8700 hc       187 PP       0.063200
   1682 HB2        68.2900   25.1600   54.9600 hc       187 PP       0.063200
   1683 HB3        68.8100   25.3800   56.6700 hc       187 PP       0.063200
   1684 C2         66.8300   24.4100   58.0900 c3       188 PP      -0.006100
   1685 C1         67.5800   23.1300   58.5900 c3       188 PP       0.076800
   1686 CB         67.7500   23.2600   60.1500 c3       188 PP      -0.265900
   1687 H21        67.2000   25.2900   58.6100 hc       188 PP       0.001900
   1688 H22        65.7700   24.3200   58.3700 hc       188 PP       0.001900
   1689 H1         68.5800   23.1900   58.1500 hc       188 PP       0.001800
   1690 HB1        68.5000   24.0000   60.4300 hc       188 PP       0.063200
   1691 HB2        66.7500   23.3900   60.5900 hc       188 PP       0.063200
   1692 HB3        68.0800   22.3100   60.5900 hc       188 PP       0.063200
   1693 C2         66.7500   21.9200   58.0800 c3       189 PP      -0.006100
   1694 C1         67.3700   20.6000   58.4500 c3       189 PP       0.076800
   1695 CB         66.5100   19.3500   57.9900 c3       189 PP      -0.265900
   1696 H21        65.7100   21.8700   58.4100 hc       189 PP       0.001900
   1697 H22        66.7500   21.9100   56.9800 hc       189 PP       0.001900
   1698 H1         67.3500   20.6600   59.5400 hc       189 PP       0.001800
   1699 HB1        65.4600   19.5300   58.2600 hc       189 PP       0.063200
   1700 HB2        66.7000   19.2300   56.9200 hc       189 PP       0.063200
   1701 HB3        66.8000   18.4200   58.5000 hc       189 PP       0.063200
   1702 C2         68.8900   20.4800   57.8500 c3       190 PP      -0.006100
   1703 C1         69.6200   19.1000   58.1100 c3       190 PP       0.076800
   1704 CB         70.3100   18.5600   56.7400 c3       190 PP      -0.265900
   1705 H21        68.8400   20.6400   56.7700 hc       190 PP       0.001900
   1706 H22        69.5200   21.2500   58.3100 hc       190 PP       0.001900
   1707 H1         68.8300   18.3800   58.3700 hc       190 PP       0.001800
   1708 HB1        69.5100   18.4100   56.0000 hc       190 PP       0.063200
   1709 HB2        71.1000   19.2600   56.4400 hc       190 PP       0.063200
   1710 HB3        70.7500   17.5900   56.9700 hc       190 PP       0.063200
   1711 C2         70.7300   19.1000   59.1700 c3       191 PP      -0.006100
   1712 C1         70.1900   19.4500   60.6700 c3       191 PP       0.076800
   1713 CB         69.1400   18.5400   61.2300 c3       191 PP      -0.265900
   1714 H21        71.1500   18.0900   59.2100 hc       191 PP       0.001900
   1715 H22        71.4800   19.8500   58.8900 hc       191 PP       0.001900
   1716 H1         69.6300   20.3900   60.5900 hc       191 PP       0.001800
   1717 HB1        68.1800   18.5700   60.7000 hc       191 PP       0.063200
   1718 HB2        69.4900   17.5100   61.2700 hc       191 PP       0.063200
   1719 HB3        68.9600   18.7700   62.2900 hc       191 PP       0.063200
   1720 C2         71.3200   19.6600   61.7500 c3       192 PP      -0.006100
   1721 C1         72.0600   18.4300   62.4700 c3       192 PP       0.076800
   1722 CB         71.1600   17.7300   63.4300 c3       192 PP      -0.265900
   1723 H21        72.1000   20.2300   61.2300 hc       192 PP       0.001900
   1724 H22        70.9700   20.4300   62.4400 hc       192 PP       0.001900
   1725 H1         72.8200   18.7900   63.1700 hc       192 PP       0.001800
   1726 HB1        70.5300   17.0000   62.9100 hc       192 PP       0.063200
   1727 HB2        71.7300   17.1900   64.2000 hc       192 PP       0.063200
   1728 HB3        70.5700   18.4300   64.0400 hc       192 PP       0.063200
   1729 C2         72.9300   17.4400   61.6200 c3       193 PP      -0.006100
   1730 C1         74.0000   18.1200   60.7100 c3       193 PP       0.076800
   1731 CB         75.0300   19.0400   61.5200 c3       193 PP      -0.265900
   1732 H21        73.4300   16.7200   62.2800 hc       193 PP       0.001900
   1733 H22        72.2400   16.8000   61.0500 hc       193 PP       0.001900
   1734 H1         73.4400   18.7800   60.0400 hc       193 PP       0.001800
   1735 HB1        75.6500   18.4100   62.1600 hc       193 PP       0.063200
   1736 HB2        75.5600   19.6800   60.8000 hc       193 PP       0.063200
   1737 HB3        74.4700   19.6800   62.2100 hc       193 PP       0.063200
   1738 C2         74.7300   17.1200   59.8200 c3       194 PP      -0.006100
   1739 C1         73.8700   16.3600   58.8000 c3       194 PP       0.076800
   1740 CB         74.2200   16.5700   57.3600 c3       194 PP      -0.265900
   1741 H21        75.5700   17.6100   59.3200 hc       194 PP       0.001900
   1742 H22        75.3000   16.4000   60.4300 hc       194 PP       0.001900
   1743 H1         72.8400   16.7500   58.7800 hc       194 PP       0.001800
   1744 HB1        73.4600   16.0600   56.7600 hc       194 PP       0.063200
   1745 HB2        74.1700   17.6400   57.1200 hc       194 PP       0.063200
   1746 HB3        75.2000   16.1500   57.0800 hc       194 PP       0.063200
   1747 C2         73.6100   14.8800   59.2500 c3       195 PP      -0.006100
   1748 C1         72.2900   14.1700   58.7000 c3       195 PP       0.076800
   1749 CB         72.5100   12.7100   58.2300 c3       195 PP      -0.265900
   1750 H21        74.4700   14.2400   59.0100 hc       195 PP       0.001900
   1751 H22        73.6500   14.8400   60.3500 hc       195 PP       0.001900
   1752 H1         71.9800   14.6600   57.7700 hc       195 PP       0.001800
   1753 HB1        71.5000   12.3500   57.9900 hc       195 PP       0.063200
   1754 HB2        73.1600   12.6100   57.3600 hc       195 PP       0.063200
   1755 HB3        72.8400   12.0100   59.0100 hc       195 PP       0.063200
   1756 C2         71.1100   14.3100   59.6600 c3       196 PP      -0.006100
   1757 C1         69.5600   14.1400   59.2000 c3       196 PP       0.076800
   1758 CB         68.7400   14.1200   60.5200 c3       196 PP      -0.265900
   1759 H21        71.1900   13.6900   60.5700 hc       196 PP       0.001900
   1760 H22        71.1900   15.3900   59.8600 hc       196 PP       0.001900
   1761 H1         69.4400   13.1800   58.7000 hc       196 PP       0.001800
   1762 HB1        67.6700   14.1800   60.3100 hc       196 PP       0.063200
   1763 HB2        69.0000   13.1800   61.0200 hc       196 PP       0.063200
   1764 HB3        69.0200   14.9600   61.1800 hc       196 PP       0.063200
   1765 C2         69.1100   15.1500   58.1500 c3       197 PP      -0.006100
   1766 C1         67.7800   14.8000   57.4300 c3       197 PP       0.076800
   1767 CB         66.8000   16.0300   57.3500 c3       197 PP      -0.265900
   1768 H21        69.0300   16.0700   58.7500 hc       197 PP       0.001900
   1769 H22        69.9000   15.3000   57.4100 hc       197 PP       0.001900
   1770 H1         67.3000   14.0600   58.0900 hc       197 PP       0.001800
   1771 HB1        65.8900   15.9900   56.7300 hc       197 PP       0.063200
   1772 HB2        66.4100   16.1800   58.3600 hc       197 PP       0.063200
   1773 HB3        67.3500   16.9500   57.1000 hc       197 PP       0.063200
   1774 C2         68.0100   14.2600   55.9500 c3       198 PP      -0.006100
   1775 C1         68.6100   12.7600   55.9700 c3       198 PP       0.076800
   1776 CB         67.4600   11.9400   56.4000 c3       198 PP      -0.265900
   1777 H21        67.1000   14.2500   55.3500 hc       198 PP       0.001900
   1778 H22        68.7400   14.9000   55.4400 hc       198 PP       0.001900
   1779 H1         69.5000   12.7200   56.6000 hc       198 PP       0.001800
   1780 HB1        66.5200   12.1700   55.8800 hc       198 PP       0.063200
   1781 HB2        67.5800   10.8600   56.2100 hc       198 PP       0.063200
   1782 HB3        67.1900   12.0600   57.4500 hc       198 PP       0.063200
   1783 C2         69.0600   12.4500   54.4500 c3       199 PP      -0.006100
   1784 C1         69.5400   11.0700   54.1500 c3       199 PP       0.076800
   1785 CB         68.5900   10.1500   53.3600 c3       199 PP      -0.265900
   1786 H21        68.2100   12.6900   53.8000 hc       199 PP       0.001900
   1787 H22        69.8900   13.1400   54.2200 hc       199 PP       0.001900
   1788 H1         69.5000   10.5000   55.0800 hc       199 PP       0.001800
   1789 HB1        68.6100   10.4800   52.3100 hc       199 PP       0.063200
   1790 HB2        68.8700    9.0900   53.3800 hc       199 PP       0.063200
   1791 HB3        67.5700   10.2300   53.7500 hc       199 PP       0.063200
   1792 C2         70.9700   10.9700   53.5800 c3       200 PP      -0.006100
   1793 C1         72.0100   11.4200   54.7200 c3       200 PP       0.076800
   1794 CB         72.3900   10.0600   55.4800 c3       200 PP      -0.265900
   1795 H21        71.2600    9.9800   53.2100 hc       200 PP       0.001900
   1796 H22        70.9500   11.6600   52.7300 hc       200 PP       0.001900
   1797 H1         71.5000   12.0800   55.4300 hc       200 PP       0.001800
   1798 HB1        72.4800   10.2000   56.5600 hc       200 PP       0.063200
   1799 HB2        71.7500    9.1800   55.3200 hc       200 PP       0.063200
   1800 HB3        73.3700    9.6900   55.1500 hc       200 PP       0.063200
   1801 C2         73.2900   12.0000   54.1700 c3       201 PP      -0.006100
   1802 C1         73.0500   13.3000   53.3500 c3       201 PP       0.076800
   1803 CB         72.5700   14.5200   54.1900 c3       201 PP      -0.265900
   1804 H21        73.9500   12.2500   55.0100 hc       201 PP       0.001900
   1805 H22        73.7600   11.2600   53.5100 hc       201 PP       0.001900
   1806 H1         72.2300   13.3100   52.6200 hc       201 PP       0.001800
   1807 HB1        71.5000   14.4600   54.3900 hc       201 PP       0.063200
   1808 HB2        73.0400   14.4000   55.1800 hc       201 PP       0.063200
   1809 HB3        72.8200   15.4700   53.7100 hc       201 PP       0.063200
   1810 C2         74.2600   13.7600   52.4700 c3       202 PP      -0.006100
   1811 C1         74.8000   12.7900   51.3500 c3       202 PP       0.076800
   1812 CB         73.5700   12.3600   50.4700 c3       202 PP      -0.265900
   1813 H21        74.0500   14.7700   52.1100 hc       202 PP       0.001900
   1814 H22        75.1100   13.9700   53.1400 hc       202 PP       0.001900
   1815 H1         75.3300   11.9300   51.7800 hc       202 PP       0.001800
   1816 HB1        73.0100   13.2100   50.0500 hc       202 PP       0.063200
   1817 HB2        73.9700   11.8000   49.6200 hc       202 PP       0.063200
   1818 HB3        72.8000   11.7800   51.0000 hc       202 PP       0.063200
   1819 C2         75.7100   13.5800   50.4000 c3       203 PP      -0.006100
   1820 C1         77.1600   13.9700   50.9800 c3       203 PP       0.076800
   1821 CB         78.2400   12.9000   50.7100 c3       203 PP      -0.265900
   1822 H21        75.7100   13.0200   49.4600 hc       203 PP       0.001900
   1823 H22        75.1900   14.4800   50.0500 hc       203 PP       0.001900
   1824 H1         77.0500   14.0500   52.0700 hc       203 PP       0.001800
   1825 HB1        77.9300   12.0600   51.3500 hc       203 PP       0.063200
   1826 HB2        78.3900   12.6700   49.6500 hc       203 PP       0.063200
   1827 HB3        79.2100   13.0700   51.2000 hc       203 PP       0.063200
   1828 C2         77.6400   15.3500   50.4100 c3       204 PP      -0.006100
   1829 C1         79.1100   15.6900   50.8100 c3       204 PP       0.076800
   1830 CB         79.5500   17.0200   50.2600 c3       204 PP      -0.265900
   1831 H21        77.3000   15.6000   49.4000 hc       204 PP       0.001900
   1832 H22        77.0900   16.0900   51.0000 hc       204 PP       0.001900
   1833 H1         79.7700   14.9500   50.3300 hc       204 PP       0.001800
   1834 HB1        79.5100   17.1000   49.1700 hc       204 PP       0.063200
   1835 HB2        78.9100   17.8400   50.6200 hc       204 PP       0.063200
   1836 HB3        80.5800   17.0800   50.6300 hc       204 PP       0.063200
   1837 C2         -0.5800   15.5400   52.3500 c3       205 PP      -0.006100
   1838 C1          0.9300   15.7500   52.8000 c3       205 PP       0.076800
   1839 CB          0.9900   15.7900   54.3100 c3       205 PP      -0.265900
   1840 H21        -1.2600   16.2100   52.8800 hc       205 PP       0.001900
   1841 H22        -0.9000   14.5200   52.6300 hc       205 PP       0.001900
   1842 H1          1.3000   16.7600   52.5800 hc       205 PP       0.001800
   1843 HB1         0.1500   16.3300   54.7600 hc       205 PP       0.063200
   1844 HB2         0.9400   14.7900   54.7500 hc       205 PP       0.063200
   1845 HB3         1.9000   16.3300   54.5900 hc       205 PP       0.063200
   1846 C2          1.8700   14.6700   52.1900 c3       206 PP      -0.006100
   1847 C1          3.3900   15.0700   52.3400 c3       206 PP       0.076800
   1848 CB          4.2400   14.0600   53.3000 c3       206 PP      -0.265900
   1849 H21         1.6100   13.7300   52.6900 hc       206 PP       0.001900
   1850 H22         1.6600   14.5000   51.1300 hc       206 PP       0.001900
   1851 H1          3.4500   16.0200   52.9000 hc       206 PP       0.001800
   1852 HB1         5.2600   14.4200   53.4600 hc       206 PP       0.063200
   1853 HB2         3.8300   13.9700   54.3100 hc       206 PP       0.063200
   1854 HB3         4.3700   13.1300   52.7200 hc       206 PP       0.063200
   1855 C2          4.1600   15.1300   50.9700 c3       207 PP      -0.006100
   1856 C1          4.5000   16.5400   50.3900 c3       207 PP       0.076800
   1857 CB          3.1800   17.3700   50.1300 c3       207 PP      -0.265900
   1858 H21         5.1200   14.6900   51.2800 hc       207 PP       0.001900
   1859 H22         3.6900   14.5600   50.1600 hc       207 PP       0.001900
   1860 H1          5.0600   16.3400   49.4600 hc       207 PP       0.001800
   1861 HB1         2.7300   17.7200   51.0700 hc       207 PP       0.063200
   1862 HB2         3.4700   18.2900   49.6100 hc       207 PP       0.063200
   1863 HB3         2.4900   16.9200   49.4100 hc       207 PP       0.063200
   1864 C2          5.4000   17.3400   51.3500 c3       208 PP      -0.006100
   1865 C1          6.8500   16.8100   51.6900 c3       208 PP       0.076800
   1866 CB          7.6800   16.7600   50.3900 c3       208 PP      -0.265900
   1867 H21         5.5300   18.3400   50.9300 hc       208 PP       0.001900
   1868 H22         4.9100   17.4100   52.3300 hc       208 PP       0.001900
   1869 H1          6.9000   15.7700   52.0200 hc       208 PP       0.001800
   1870 HB1         7.8300   17.7200   49.8800 hc       208 PP       0.063200
   1871 HB2         8.6500   16.3300   50.6600 hc       208 PP       0.063200
   1872 HB3         7.2100   16.0900   49.6600 hc       208 PP       0.063200
   1873 C2          7.5200   17.8300   52.7700 c3       209 PP      -0.006100
   1874 C1          7.1900   17.4300   54.2500 c3       209 PP       0.076800
   1875 CB          7.8400   16.1100   54.6700 c3       209 PP      -0.265900
   1876 H21         8.5800   18.0100   52.5600 hc       209 PP       0.001900
   1877 H22         7.0700   18.8100   52.5200 hc       209 PP       0.001900
   1878 H1          6.1100   17.2400   54.3400 hc       209 PP       0.001800
   1879 HB1         7.2400   15.2600   54.3400 hc       209 PP       0.063200
   1880 HB2         8.8500   15.9300   54.2800 hc       209 PP       0.063200
   1881 HB3         7.8400   16.1300   55.7700 hc       209 PP       0.063200
   1882 C2          7.6300   18.6400   55.2100 c3       210 PP      -0.006100
   1883 C1          6.6900   18.6500   56.4500 c3       210 PP       0.076800
   1884 CB          7.3700   19.1800   57.7600 c3       210 PP      -0.265900
   1885 H21         7.5900   19.5100   54.5600 hc       210 PP       0.001900
   1886 H22         8.7000   18.4600   55.4100 hc       210 PP       0.001900
   1887 H1          5.7900   19.2600   56.3200 hc       210 PP       0.001800
   1888 HB1         6.6100   19.6900   58.3600 hc       210 PP       0.063200
   1889 HB2         7.8600   18.3700   58.3000 hc       210 PP       0.063200
   1890 HB3         8.1700   19.8800   57.5100 hc       210 PP       0.063200
   1891 C2          6.4400   39.0800   49.9000 c3       211 PP      -0.006100
   1892 C1          7.5600   39.5400   50.8600 c3       211 PP       0.076800
   1893 CB          8.9500   39.1200   50.4000 c3       211 PP      -0.265900
   1894 H21         6.5700   38.0200   49.6500 hc       211 PP       0.001900
   1895 H22         5.4700   39.1600   50.4100 hc       211 PP       0.001900
   1896 H1          7.3200   39.0000   51.7900 hc       211 PP       0.001800
   1897 HB1         9.6400   39.4000   51.2100 hc       211 PP       0.063200
   1898 HB2         8.8900   38.0700   50.0900 hc       211 PP       0.063200
   1899 HB3         9.3400   39.5500   49.4700 hc       211 PP       0.063200
   1900 C2          7.5500   41.0100   51.2800 c3       212 PP      -0.006100
   1901 C1          6.1300   41.5400   51.7800 c3       212 PP       0.076800
   1902 CB          5.6100   40.7100   53.0600 c3       212 PP      -0.265900
   1903 H21         8.3400   41.1700   52.0200 hc       212 PP       0.001900
   1904 H22         7.8100   41.5900   50.3900 hc       212 PP       0.001900
   1905 H1          5.3600   41.4500   51.0000 hc       212 PP       0.001800
   1906 HB1         6.4800   40.3500   53.6400 hc       212 PP       0.063200
   1907 HB2         4.9900   41.3600   53.6800 hc       212 PP       0.063200
   1908 HB3         5.1000   39.7700   52.8400 hc       212 PP       0.063200
   1909 C2          6.3200   43.0400   52.0800 c3       213 PP      -0.006100
   1910 C1          5.3300   44.1000   51.3700 c3       213 PP       0.076800
   1911 CB          5.3300   43.9000   49.8300 c3       213 PP      -0.265900
   1912 H21         6.1600   43.1500   53.1600 hc       213 PP       0.001900
   1913 H22         7.3600   43.3700   51.9600 hc       213 PP       0.001900
   1914 H1          5.8200   45.0500   51.5900 hc       213 PP       0.001800
   1915 HB1         5.8600   43.0200   49.4500 hc       213 PP       0.063200
   1916 HB2         4.3400   43.5400   49.5100 hc       213 PP       0.063200
   1917 HB3         5.5600   44.7200   49.1500 hc       213 PP       0.063200
   1918 C2          3.8700   44.0300   51.8900 c3       214 PP      -0.006100
   1919 C1          3.0500   45.3800   51.7800 c3       214 PP       0.076800
   1920 CB          2.9700   46.0000   50.3500 c3       214 PP      -0.265900
   1921 H21         3.3300   43.2600   51.3300 hc       214 PP       0.001900
   1922 H22         3.8400   43.6700   52.9300 hc       214 PP       0.001900
   1923 H1          3.5900   46.1900   52.2900 hc       214 PP       0.001800
   1924 HB1         3.9700   46.3000   50.0100 hc       214 PP       0.063200
   1925 HB2         2.5500   45.2600   49.6600 hc       214 PP       0.063200
   1926 HB3         2.3300   46.8800   50.2800 hc       214 PP       0.063200
   1927 C2          1.5900   45.1900   52.5500 c3       215 PP      -0.006100
   1928 C1          1.5600   45.1300   54.0800 c3       215 PP       0.076800
   1929 CB          1.5700   46.5600   54.6700 c3       215 PP      -0.265900
   1930 H21         1.0200   46.0600   52.2100 hc       215 PP       0.001900
   1931 H22         1.1100   44.2900   52.1500 hc       215 PP       0.001900
   1932 H1          2.4200   44.5400   54.4400 hc       215 PP       0.001800
   1933 HB1         0.6400   47.1100   54.5000 hc       215 PP       0.063200
   1934 HB2         1.7600   46.5200   55.7500 hc       215 PP       0.063200
   1935 HB3         2.4000   47.1300   54.2400 hc       215 PP       0.063200
   1936 C2         80.3200   44.3600   54.5900 c3       216 PP      -0.006100
   1937 C1         80.4500   43.9000   55.9900 c3       216 PP       0.076800
   1938 CB         79.0800   43.5900   56.6600 c3       216 PP      -0.265900
   1939 H21        79.4700   45.0600   54.5800 hc       216 PP       0.001900
   1940 H22        80.1100   43.4300   54.0400 hc       216 PP       0.001900
   1941 H1         80.6500   44.8100   56.5700 hc       216 PP       0.001800
   1942 HB1        79.2100   43.4300   57.7400 hc       216 PP       0.063200
   1943 HB2        78.4100   44.4600   56.6800 hc       216 PP       0.063200
   1944 HB3        78.5000   42.7700   56.2100 hc       216 PP       0.063200
   1945 C2          1.5200   42.7200   56.3100 c3       217 PP      -0.006100
   1946 C1          1.7300   41.6100   55.3000 c3       217 PP       0.076800
   1947 CB          2.9700   40.7900   55.7400 c3       217 PP      -0.265900
   1948 H21         2.4400   43.3100   56.4300 hc       217 PP       0.001900
   1949 H22         1.3600   42.4300   57.3600 hc       217 PP       0.001900
   1950 H1          2.1100   42.0900   54.3900 hc       217 PP       0.001800
   1951 HB1         3.2900   40.1500   54.9100 hc       217 PP       0.063200
   1952 HB2         3.7300   41.5500   55.9400 hc       217 PP       0.063200
   1953 HB3         2.7800   40.0600   56.5400 hc       217 PP       0.063200
   1954 C2          0.5000   40.7900   55.0500 c3       218 PP      -0.006100
   1955 C1          0.6000   39.7200   53.9600 c3       218 PP       0.076800
   1956 CB         -0.6600   38.8400   53.9000 c3       218 PP      -0.265900
   1957 H21         0.2700   40.3800   56.0500 hc       218 PP       0.001900
   1958 H22        -0.3000   41.5000   54.8100 hc       218 PP       0.001900
   1959 H1          1.4100   39.0500   54.2600 hc       218 PP       0.001800
   1960 HB1        -0.8600   38.4800   54.9200 hc       218 PP       0.063200
   1961 HB2        -1.5500   39.4100   53.5800 hc       218 PP       0.063200
   1962 HB3        -0.5200   37.9900   53.2100 hc       218 PP       0.063200
   1963 C2          0.8400   40.3200   52.5300 c3       219 PP      -0.006100
   1964 C1          1.1900   39.3200   51.4300 c3       219 PP       0.076800
   1965 CB          1.1300   40.0300   50.1000 c3       219 PP      -0.265900
   1966 H21        -0.0700   40.8700   52.2800 hc       219 PP       0.001900
   1967 H22         1.7000   41.0000   52.4500 hc       219 PP       0.001900
   1968 H1          0.3800   38.5900   51.3500 hc       219 PP       0.001800
   1969 HB1         1.7100   39.5600   49.2900 hc       219 PP       0.063200
   1970 HB2         0.0900   40.0500   49.7500 hc       219 PP       0.063200
   1971 HB3         1.5500   41.0400   50.1800 hc       219 PP       0.063200
   1972 C2          2.4700   38.5500   51.6400 c3       220 PP      -0.006100
   1973 C1          2.4400   37.1300   50.9200 c3       220 PP       0.076800
   1974 CB          3.8500   36.8100   50.4500 c3       220 PP      -0.265900
   1975 H21         3.3000   39.1700   51.3000 hc       220 PP       0.001900
   1976 H22         2.7300   38.4900   52.7000 hc       220 PP       0.001900
   1977 H1          1.7600   37.1900   50.0600 hc       220 PP       0.001800
   1978 HB1         4.6500   36.9600   51.1800 hc       220 PP       0.063200
   1979 HB2         3.9800   35.8800   49.8900 hc       220 PP       0.063200
   1980 HB3         4.1300   37.5500   49.6900 hc       220 PP       0.063200
   1981 C2          2.0500   35.9500   51.9500 c3       221 PP      -0.006100
   1982 C1          1.8600   34.6600   51.1400 c3       221 PP       0.076800
   1983 CB          2.9600   33.6100   51.3600 c3       221 PP      -0.265900
   1984 H21         2.9000   35.8700   52.6500 hc       221 PP       0.001900
   1985 H22         1.1500   36.2700   52.4900 hc       221 PP       0.001900
   1986 H1          1.8200   34.9800   50.0900 hc       221 PP       0.001800
   1987 HB1         2.6300   32.7600   51.9600 hc       221 PP       0.063200
   1988 HB2         3.2200   33.2200   50.3700 hc       221 PP       0.063200
   1989 HB3         3.8400   34.0700   51.8300 hc       221 PP       0.063200
   1990 C2         80.4700   33.9600   51.2400 c3       222 PP      -0.006100
   1991 C1         79.2200   34.8800   50.9400 c3       222 PP       0.076800
   1992 CB         79.0300   35.1800   49.4400 c3       222 PP      -0.265900
   1993 H21        80.4500   33.1500   50.5000 hc       222 PP       0.001900
   1994 H22        80.2500   33.4500   52.1900 hc       222 PP       0.001900
   1995 H1         79.4100   35.8300   51.4400 hc       222 PP       0.001800
   1996 HB1        79.8700   35.6400   48.9100 hc       222 PP       0.063200
   1997 HB2        78.6200   34.4400   48.7400 hc       222 PP       0.063200
   1998 HB3        78.2400   35.9000   49.2400 hc       222 PP       0.063200
   1999 C2         77.8800   34.2900   51.4000 c3       223 PP      -0.006100
   2000 C1         77.8200   34.3700   52.9900 c3       223 PP       0.076800
   2001 CB         77.1600   35.6400   53.3900 c3       223 PP      -0.265900
   2002 H21        76.9300   34.7600   51.1200 hc       223 PP       0.001900
   2003 H22        77.8100   33.2600   51.0400 hc       223 PP       0.001900
   2004 H1         78.7600   34.2900   53.5500 hc       223 PP       0.001800
   2005 HB1        76.0800   35.5200   53.2500 hc       223 PP       0.063200
   2006 HB2        77.4600   35.8200   54.4200 hc       223 PP       0.063200
   2007 HB3        77.5200   36.4900   52.8000 hc       223 PP       0.063200
   2008 C2         76.9000   33.2100   53.4300 c3       224 PP      -0.006100
   2009 C1         77.6200   31.8700   53.4200 c3       224 PP       0.076800
   2010 CB         78.4400   31.5000   54.7700 c3       224 PP      -0.265900
   2011 H21        76.5700   33.4300   54.4600 hc       224 PP       0.001900
   2012 H22        75.9900   33.1400   52.8300 hc       224 PP       0.001900
   2013 H1         78.3500   31.9800   52.6100 hc       224 PP       0.001800
   2014 HB1        79.0000   30.5600   54.6700 hc       224 PP       0.063200
   2015 HB2        79.2100   32.2100   55.0700 hc       224 PP       0.063200
   2016 HB3        77.6500   31.3400   55.5100 hc       224 PP       0.063200
   2017 C2         76.7200   30.7500   52.9500 c3       225 PP      -0.006100
   2018 C1         76.5300   30.5200   51.3600 c3       225 PP       0.076800
   2019 CB         77.8400   30.0200   50.7300 c3       225 PP      -0.265900
   2020 H21        76.8600   29.7600   53.4000 hc       225 PP       0.001900
   2021 H22        75.7100   30.9900   53.3100 hc       225 PP       0.001900
   2022 H1         76.3100   31.4700   50.8500 hc       225 PP       0.001800
   2023 HB1        78.4700   30.9200   50.6000 hc       225 PP       0.063200
   2024 HB2        78.4000   29.4500   51.4800 hc       225 PP       0.063200
   2025 HB3        77.7100   29.5600   49.7400 hc       225 PP       0.063200
   2026 C2         75.3400   29.5600   51.0300 c3       226 PP      -0.006100
   2027 C1         75.4500   28.0500   51.6200 c3       226 PP       0.076800
   2028 CB         74.8200   27.9200   53.0400 c3       226 PP      -0.265900
   2029 H21        74.3900   29.9700   51.3900 hc       226 PP       0.001900
   2030 H22        75.2600   29.4700   49.9400 hc       226 PP       0.001900
   2031 H1         76.5300   27.9700   51.7900 hc       226 PP       0.001800
   2032 HB1        75.3600   28.4600   53.8300 hc       226 PP       0.063200
   2033 HB2        73.8200   28.3700   53.1000 hc       226 PP       0.063200
   2034 HB3        74.7200   26.8700   53.3400 hc       226 PP       0.063200
   2035 C2         75.0100   26.9800   50.6300 c3       227 PP      -0.006100
   2036 C1         75.3800   25.4300   50.9200 c3       227 PP       0.076800
   2037 CB         74.4300   24.4500   50.2000 c3       227 PP      -0.265900
   2038 H21        73.9300   26.9800   50.8000 hc       227 PP       0.001900
   2039 H22        75.1600   27.2000   49.5600 hc       227 PP       0.001900
   2040 H1         75.1800   25.1900   51.9700 hc       227 PP       0.001800
   2041 HB1        74.5500   24.3600   49.1200 hc       227 PP       0.063200
   2042 HB2        74.6000   23.3900   50.4500 hc       227 PP       0.063200
   2043 HB3        73.4000   24.6900   50.5000 hc       227 PP       0.063200
   2044 C2         76.8500   24.9900   50.3900 c3       228 PP      -0.006100
   2045 C1         78.0800   25.8200   50.7700 c3       228 PP       0.076800
   2046 CB         78.0700   25.9300   52.3200 c3       228 PP      -0.265900
   2047 H21        77.0800   23.9700   50.7500 hc       228 PP       0.001900
   2048 H22        76.8400   24.8400   49.3000 hc       228 PP       0.001900
   2049 H1         78.0400   26.8000   50.2800 hc       228 PP       0.001800
   2050 HB1        78.5300   26.9000   52.5600 hc       228 PP       0.063200
   2051 HB2        77.1000   26.0000   52.8300 hc       228 PP       0.063200
   2052 HB3        78.8100   25.3000   52.8300 hc       228 PP       0.063200
   2053 C2         -0.5900   25.1900   50.4400 c3       229 PP      -0.006100
   2054 C1          0.6800   25.8900   50.8700 c3       229 PP       0.076800
   2055 CB          1.9500   25.1100   50.4400 c3       229 PP      -0.265900
   2056 H21        -0.5900   24.1600   50.8200 hc       229 PP       0.001900
   2057 H22        -0.5200   24.9800   49.3600 hc       229 PP       0.001900
   2058 H1          0.8800   25.9000   51.9500 hc       229 PP       0.001800
   2059 HB1         2.5900   25.5400   49.6600 hc       229 PP       0.063200
   2060 HB2         2.6300   25.1000   51.3000 hc       229 PP       0.063200
   2061 HB3         1.7200   24.0700   50.1900 hc       229 PP       0.063200
   2062 C2          0.6900   27.3800   50.3700 c3       230 PP      -0.006100
   2063 C1          2.0200   28.2200   50.5600 c3       230 PP       0.076800
   2064 CB          1.6800   29.7000   50.2200 c3       230 PP      -0.265900
   2065 H21         0.4800   27.4500   49.2900 hc       230 PP       0.001900
   2066 H22        -0.0400   28.0300   50.8600 hc       230 PP       0.001900
   2067 H1          2.8200   27.8600   49.9100 hc       230 PP       0.001800
   2068 HB1         1.6000   30.3100   51.1200 hc       230 PP       0.063200
   2069 HB2         2.4700   30.1500   49.6000 hc       230 PP       0.063200
   2070 HB3         0.7000   29.8300   49.7400 hc       230 PP       0.063200
   2071 C2          2.3800   28.1600   52.1000 c3       231 PP      -0.006100
   2072 C1          3.5900   29.0500   52.4600 c3       231 PP       0.076800
   2073 CB          3.3100   29.8900   53.8400 c3       231 PP      -0.265900
   2074 H21         1.4800   28.3600   52.7000 hc       231 PP       0.001900
   2075 H22         2.6700   27.1200   52.2900 hc       231 PP       0.001900
   2076 H1          3.6900   29.8700   51.7400 hc       231 PP       0.001800
   2077 HB1         4.2600   30.3000   54.1900 hc       231 PP       0.063200
   2078 HB2         2.5700   30.7000   53.7900 hc       231 PP       0.063200
   2079 HB3         2.9200   29.1600   54.5700 hc       231 PP       0.063200
   2080 C2          4.8700   28.2800   52.5800 c3       232 PP      -0.006100
   2081 C1          5.4400   27.4200   51.3700 c3       232 PP       0.076800
   2082 CB          5.6700   28.3800   50.0700 c3       232 PP      -0.265900
   2083 H21         5.7700   28.8400   52.8700 hc       232 PP       0.001900
   2084 H22         4.7300   27.6000   53.4300 hc       232 PP       0.001900
   2085 H1          4.7100   26.6200   51.2100 hc       232 PP       0.001800
   2086 HB1         6.7100   28.7000   49.9500 hc       232 PP       0.063200
   2087 HB2         5.6300   27.7800   49.1500 hc       232 PP       0.063200
   2088 HB3         4.9800   29.2300   50.0500 hc       232 PP       0.063200
   2089 C2          6.8000   26.7400   51.7200 c3       233 PP      -0.006100
   2090 C1          7.1000   25.4300   50.9500 c3       233 PP       0.076800
   2091 CB          8.6200   25.2400   50.6700 c3       233 PP      -0.265900
   2092 H21         7.7100   27.3600   51.6500 hc       233 PP       0.001900
   2093 H22         6.6600   26.5000   52.7800 hc       233 PP       0.001900
   2094 H1          6.6300   25.4500   49.9600 hc       233 PP       0.001800
   2095 HB1         8.9600   24.4400   50.0000 hc       233 PP       0.063200
   2096 HB2         9.0600   26.1000   50.1600 hc       233 PP       0.063200
   2097 HB3         9.2500   25.1600   51.5600 hc       233 PP       0.063200
   2098 C2          6.5600   24.2100   51.7900 c3       234 PP      -0.006100
   2099 C1          5.7100   23.1200   50.9900 c3       234 PP       0.076800
   2100 CB          6.5500   22.3200   50.0200 c3       234 PP      -0.265900
   2101 H21         7.4400   23.7700   52.2800 hc       234 PP       0.001900
   2102 H22         5.9400   24.5300   52.6300 hc       234 PP       0.001900
   2103 H1          4.8300   23.5900   50.5400 hc       234 PP       0.001800
   2104 HB1         7.3600   21.7900   50.5100 hc       234 PP       0.063200
   2105 HB2         5.8700   21.5900   49.5600 hc       234 PP       0.063200
   2106 HB3         6.9100   22.9500   49.1900 hc       234 PP       0.063200
   2107 C2          5.0700   22.2500   52.0700 c3       235 PP      -0.006100
   2108 C1          3.6200   21.8100   51.8200 c3       235 PP       0.076800
   2109 CB          3.3800   21.1700   50.4000 c3       235 PP      -0.265900
   2110 H21         5.7100   21.3800   52.2500 hc       235 PP       0.001900
   2111 H22         5.0700   22.8400   52.9900 hc       235 PP       0.001900
   2112 H1          2.9900   22.7100   51.8700 hc       235 PP       0.001800
   2113 HB1         4.0800   20.3600   50.1700 hc       235 PP       0.063200
   2114 HB2         2.4000   20.7100   50.2100 hc       235 PP       0.063200
   2115 HB3         3.4600   21.9200   49.6100 hc       235 PP       0.063200
   2116 C2          3.1800   20.8800   52.9600 c3       236 PP      -0.006100
   2117 C1          1.6900   20.5100   52.9800 c3       236 PP       0.076800
   2118 CB          1.5400   19.3600   54.0200 c3       236 PP      -0.265900
   2119 H21         3.7500   19.9500   52.9300 hc       236 PP       0.001900
   2120 H22         3.4700   21.3500   53.9100 hc       236 PP       0.001900
   2121 H1          1.4300   20.1900   51.9600 hc       236 PP       0.001800
   2122 HB1         0.6100   18.8000   53.8400 hc       236 PP       0.063200
   2123 HB2         2.4200   18.7100   53.9100 hc       236 PP       0.063200
   2124 HB3         1.5300   19.7800   55.0300 hc       236 PP       0.063200
   2125 C2         80.7400   21.6800   53.4100 c3       237 PP      -0.006100
   2126 C1         79.2300   21.3300   53.4200 c3       237 PP       0.076800
   2127 CB         78.4100   22.3800   54.1100 c3       237 PP      -0.265900
   2128 H21        81.0400   22.0900   54.3800 hc       237 PP       0.001900
   2129 H22        80.9000   22.4600   52.6500 hc       237 PP       0.001900
   2130 H1         79.1200   20.4200   54.0200 hc       237 PP       0.001800
   2131 HB1        77.3700   22.0600   54.2500 hc       237 PP       0.063200
   2132 HB2        78.7700   22.6800   55.1000 hc       237 PP       0.063200
   2133 HB3        78.3200   23.3000   53.5100 hc       237 PP       0.063200
   2134 C2         78.7400   21.1700   51.9400 c3       238 PP      -0.006100
   2135 C1         77.1900   20.9000   51.7000 c3       238 PP       0.076800
   2136 CB         76.9300   20.7800   50.1200 c3       238 PP      -0.265900
   2137 H21        79.0900   21.9900   51.3000 hc       238 PP       0.001900
   2138 H22        79.1300   20.2700   51.4400 hc       238 PP       0.001900
   2139 H1         76.5800   21.7300   52.0600 hc       238 PP       0.001800
   2140 HB1        77.3700   21.6500   49.6200 hc       238 PP       0.063200
   2141 HB2        77.5300   19.9200   49.8000 hc       238 PP       0.063200
   2142 HB3        75.8900   20.6600   49.7900 hc       238 PP       0.063200
   2143 C2         76.6900   19.6400   52.4700 c3       239 PP      -0.006100
   2144 C1         75.3500   19.0000   52.1000 c3       239 PP       0.076800
   2145 CB         75.2000   17.7700   53.1500 c3       239 PP      -0.265900
   2146 H21        77.5200   18.9200   52.4700 hc       239 PP       0.001900
   2147 H22        76.6200   19.9700   53.5100 hc       239 PP       0.001900
   2148 H1         75.4800   18.5100   51.1300 hc       239 PP       0.001800
   2149 HB1        74.7700   16.9100   52.6100 hc       239 PP       0.063200
   2150 HB2        76.1400   17.3100   53.4800 hc       239 PP       0.063200
   2151 HB3        74.6100   18.1100   54.0100 hc       239 PP       0.063200
   2152 C2         74.0900   19.8200   52.2900 c3       240 PP      -0.006100
   2153 C1         72.9300   19.2700   51.4400 c3       240 PP       0.076800
   2154 CB         72.9700   19.5700   49.8800 c3       240 PP      -0.265900
   2155 H21        74.1200   20.8900   52.0200 hc       240 PP       0.001900
   2156 H22        73.8100   19.9100   53.3400 hc       240 PP       0.001900
   2157 H1         72.6800   18.2200   51.6500 hc       240 PP       0.001800
   2158 HB1        73.0500   20.6600   49.7600 hc       240 PP       0.063200
   2159 HB2        73.7100   18.9800   49.3300 hc       240 PP       0.063200
   2160 HB3        72.0000   19.3000   49.4400 hc       240 PP       0.063200
   2161 C2         40.3100    7.5800   55.8900 c3       241 PP      -0.006100
   2162 C1         41.5400    7.3100   54.9800 c3       241 PP       0.076800
   2163 CB         42.6700    8.1600   55.5400 c3       241 PP      -0.265900
   2164 H21        40.5300    7.4800   56.9600 hc       241 PP       0.001900
   2165 H22        39.9000    8.5600   55.6200 hc       241 PP       0.001900
   2166 H1         41.2000    7.6700   54.0000 hc       241 PP       0.001800
   2167 HB1        43.6400    7.9400   55.0700 hc       241 PP       0.063200
   2168 HB2        42.4600    9.2000   55.2500 hc       241 PP       0.063200
   2169 HB3        42.7800    8.0500   56.6300 hc       241 PP       0.063200
   2170 C2         41.9800    5.8500   54.9500 c3       242 PP      -0.006100
   2171 C1         41.4700    5.0600   53.7400 c3       242 PP       0.076800
   2172 CB         42.0700    5.5200   52.3600 c3       242 PP      -0.265900
   2173 H21        43.0600    5.7100   55.0500 hc       242 PP       0.001900
   2174 H22        41.5400    5.4500   55.8700 hc       242 PP       0.001900
   2175 H1         40.4100    5.2900   53.5700 hc       242 PP       0.001800
   2176 HB1        43.0800    5.1000   52.2800 hc       242 PP       0.063200
   2177 HB2        41.4700    5.1700   51.5200 hc       242 PP       0.063200
   2178 HB3        42.2000    6.6000   52.2300 hc       242 PP       0.063200
   2179 C2         41.7200    3.5200   53.8400 c3       243 PP      -0.006100
   2180 C1         41.0100    2.9200   55.0800 c3       243 PP       0.076800
   2181 CB         39.4400    3.1700   54.9700 c3       243 PP      -0.265900
   2182 H21        41.3300    3.0500   52.9300 hc       243 PP       0.001900
   2183 H22        42.7800    3.2400   53.8400 hc       243 PP       0.001900
   2184 H1         41.2700    3.4200   56.0200 hc       243 PP       0.001800
   2185 HB1        38.9300    2.5800   55.7400 hc       243 PP       0.063200
   2186 HB2        39.1400    4.2100   55.0800 hc       243 PP       0.063200
   2187 HB3        39.0800    2.7500   54.0200 hc       243 PP       0.063200
   2188 C2         41.4100    1.4400   55.3200 c3       244 PP      -0.006100
   2189 C1         42.9300    1.0800   55.4500 c3       244 PP       0.076800
   2190 CB         43.7600    2.0100   56.3500 c3       244 PP      -0.265900
   2191 H21        40.8400    1.0200   56.1600 hc       244 PP       0.001900
   2192 H22        40.9300    0.7900   54.5800 hc       244 PP       0.001900
   2193 H1         43.4000    1.3300   54.4900 hc       244 PP       0.001800
   2194 HB1        44.7600    2.0400   55.9100 hc       244 PP       0.063200
   2195 HB2        43.4100    3.0500   56.4400 hc       244 PP       0.063200
   2196 HB3        43.8700    1.5600   57.3500 hc       244 PP       0.063200
   2197 C2         43.2000   79.5500   55.6900 c3       245 PP      -0.006100
   2198 C1         44.7900   79.2300   55.8100 c3       245 PP       0.076800
   2199 CB         44.9600   77.8800   56.5400 c3       245 PP      -0.265900
   2200 H21        42.7200   79.4600   56.6700 hc       245 PP       0.001900
   2201 H22        42.7000   78.8900   54.9800 hc       245 PP       0.001900
   2202 H1         45.2300   79.8800   56.5700 hc       245 PP       0.001800
   2203 HB1        44.7100   77.0700   55.8600 hc       245 PP       0.063200
   2204 HB2        45.9400   77.7000   57.0000 hc       245 PP       0.063200
   2205 HB3        44.2600   77.9300   57.3900 hc       245 PP       0.063200
   2206 C2         45.4800   79.3100   54.4200 c3       246 PP      -0.006100
   2207 C1         47.0300   79.1100   54.4200 c3       246 PP       0.076800
   2208 CB         47.6000   78.8900   53.0100 c3       246 PP      -0.265900
   2209 H21        45.0000   78.6700   53.6700 hc       246 PP       0.001900
   2210 H22        45.3400   80.3000   53.9700 hc       246 PP       0.001900
   2211 H1         47.2000   78.0900   54.8000 hc       246 PP       0.001800
   2212 HB1        47.0800   78.0900   52.4700 hc       246 PP       0.063200
   2213 HB2        47.6600   79.8800   52.5400 hc       246 PP       0.063200
   2214 HB3        48.6100   78.4900   53.1100 hc       246 PP       0.063200
   2215 C2         47.7700   80.2100   55.2200 c3       247 PP      -0.006100
   2216 C1         48.3700   79.7800   56.5900 c3       247 PP       0.076800
   2217 CB         49.5000   78.7500   56.4000 c3       247 PP      -0.265900
   2218 H21        48.5000   80.7500   54.6000 hc       247 PP       0.001900
   2219 H22        47.0200   80.9600   55.5000 hc       247 PP       0.001900
   2220 H1         47.5800   79.2300   57.1300 hc       247 PP       0.001800
   2221 HB1        49.1300   77.8100   55.9700 hc       247 PP       0.063200
   2222 HB2        50.2500   79.2100   55.7500 hc       247 PP       0.063200
   2223 HB3        49.9500   78.4700   57.3600 hc       247 PP       0.063200
   2224 C2         48.7200    1.0200   57.4900 c3       248 PP      -0.006100
   2225 C1         47.4500    1.7400   58.0400 c3       248 PP       0.076800
   2226 CB         46.5400    0.8500   59.0000 c3       248 PP      -0.265900
   2227 H21        49.2200    0.6500   58.4000 hc       248 PP       0.001900
   2228 H22        49.4000    1.6700   56.9200 hc       248 PP       0.001900
   2229 H1         46.7500    2.0100   57.2400 hc       248 PP       0.001800
   2230 HB1        47.1300    0.7300   59.9200 hc       248 PP       0.063200
   2231 HB2        45.5700    1.3500   59.1500 hc       248 PP       0.063200
   2232 HB3        46.3200   -0.1500   58.5900 hc       248 PP       0.063200
   2233 C2         47.8900    3.1100   58.7600 c3       249 PP      -0.006100
   2234 C1         46.7200    4.1000   59.0100 c3       249 PP       0.076800
   2235 CB         46.2500    4.0200   60.4900 c3       249 PP      -0.265900
   2236 H21        48.3700    2.9200   59.7300 hc       249 PP       0.001900
   2237 H22        48.5700    3.6700   58.1100 hc       249 PP       0.001900
   2238 H1         45.8000    3.7800   58.5100 hc       249 PP       0.001800
   2239 HB1        47.0500    4.1300   61.2400 hc       249 PP       0.063200
   2240 HB2        45.4300    4.6900   60.7600 hc       249 PP       0.063200
   2241 HB3        45.8700    3.0000   60.6100 hc       249 PP       0.063200
   2242 C2         47.0600    5.5900   58.6700 c3       250 PP      -0.006100
   2243 C1         46.9000    5.8400   57.1700 c3       250 PP       0.076800
   2244 CB         45.4500    5.4900   56.5100 c3       250 PP      -0.265900
   2245 H21        46.3600    6.2900   59.1600 hc       250 PP       0.001900
   2246 H22        48.1100    5.7700   58.9200 hc       250 PP       0.001900
   2247 H1         47.6400    5.2400   56.6300 hc       250 PP       0.001800
   2248 HB1        45.4200    5.9500   55.5100 hc       250 PP       0.063200
   2249 HB2        45.3400    4.4100   56.3400 hc       250 PP       0.063200
   2250 HB3        44.5700    5.8600   57.0600 hc       250 PP       0.063200
   2251 C2         47.2300    7.3100   56.8800 c3       251 PP      -0.006100
   2252 C1         48.2000    7.4900   55.6700 c3       251 PP       0.076800
   2253 CB         47.6600    8.2800   54.4900 c3       251 PP      -0.265900
   2254 H21        46.2600    7.8200   56.8000 hc       251 PP       0.001900
   2255 H22        47.7600    7.6800   57.7600 hc       251 PP       0.001900
   2256 H1         48.4300    6.4800   55.3200 hc       251 PP       0.001800
   2257 HB1        48.3400    8.4200   53.6400 hc       251 PP       0.063200
   2258 HB2        46.8000    7.8600   53.9400 hc       251 PP       0.063200
   2259 HB3        47.2900    9.2600   54.8200 hc       251 PP       0.063200
   2260 C2         49.5700    8.0600   56.0900 c3       252 PP      -0.006100
   2261 C1         50.3300    7.1800   57.2000 c3       252 PP       0.076800
   2262 CB         50.7200    5.8200   56.6600 c3       252 PP      -0.265900
   2263 H21        50.1700    8.2800   55.2000 hc       252 PP       0.001900
   2264 H22        49.3400    9.0900   56.3700 hc       252 PP       0.001900
   2265 H1         49.8200    6.9700   58.1400 hc       252 PP       0.001800
   2266 HB1        49.8700    5.2200   56.3300 hc       252 PP       0.063200
   2267 HB2        51.4200    5.7900   55.8100 hc       252 PP       0.063200
   2268 HB3        51.2300    5.2200   57.4200 hc       252 PP       0.063200
   2269 C2         51.7200    7.8100   57.5600 c3       253 PP      -0.006100
   2270 C1         51.6300    9.1900   58.3300 c3       253 PP       0.076800
   2271 CB         52.0200    8.9700   59.8500 c3       253 PP      -0.265900
   2272 H21        52.2800    7.0900   58.1600 hc       253 PP       0.001900
   2273 H22        52.2400    7.8800   56.6000 hc       253 PP       0.001900
   2274 H1         50.6100    9.6000   58.2600 hc       253 PP       0.001800
   2275 HB1        51.4300    8.1800   60.3400 hc       253 PP       0.063200
   2276 HB2        53.0100    8.5100   59.8700 hc       253 PP       0.063200
   2277 HB3        52.1300    9.8800   60.4500 hc       253 PP       0.063200
   2278 C2         52.4900   10.2700   57.7200 c3       254 PP      -0.006100
   2279 C1         52.2100   11.6300   58.4300 c3       254 PP       0.076800
   2280 CB         53.6300   12.2300   58.8200 c3       254 PP      -0.265900
   2281 H21        53.5600   10.0900   57.8400 hc       254 PP       0.001900
   2282 H22        52.3700   10.4400   56.6500 hc       254 PP       0.001900
   2283 H1         51.5700   11.4500   59.3000 hc       254 PP       0.001800
   2284 HB1        54.3200   12.2800   57.9600 hc       254 PP       0.063200
   2285 HB2        53.6800   13.2600   59.1900 hc       254 PP       0.063200
   2286 HB3        54.1300   11.5900   59.5500 hc       254 PP       0.063200
   2287 C2         51.5300   12.7300   57.5600 c3       255 PP      -0.006100
   2288 C1         49.9700   12.4900   57.1400 c3       255 PP       0.076800
   2289 CB         49.1500   12.7000   58.3500 c3       255 PP      -0.265900
   2290 H21        51.6000   13.7100   58.0400 hc       255 PP       0.001900
   2291 H22        52.1100   12.8600   56.6400 hc       255 PP       0.001900
   2292 H1         49.8400   11.4200   56.9000 hc       255 PP       0.001800
   2293 HB1        49.5400   12.0200   59.1300 hc       255 PP       0.063200
   2294 HB2        49.2700   13.7200   58.7400 hc       255 PP       0.063200
   2295 HB3        48.1100   12.4600   58.1400 hc       255 PP       0.063200
   2296 C2         49.6500   13.3100   55.9000 c3       256 PP      -0.006100
   2297 C1         50.2600   12.8700   54.5600 c3       256 PP       0.076800
   2298 CB         49.8900   11.4200   54.1500 c3       256 PP      -0.265900
   2299 H21        48.5600   13.3800   55.8500 hc       256 PP       0.001900
   2300 H22        50.1200   14.2800   56.0800 hc       256 PP       0.001900
   2301 H1         51.3500   12.9800   54.6100 hc       256 PP       0.001800
   2302 HB1        50.4300   10.7400   54.8100 hc       256 PP       0.063200
   2303 HB2        48.8400   11.1000   54.1400 hc       256 PP       0.063200
   2304 HB3        50.3100   11.1800   53.1600 hc       256 PP       0.063200
   2305 C2         49.7500   13.8900   53.5000 c3       257 PP      -0.006100
   2306 C1         50.5300   14.0800   52.1700 c3       257 PP       0.076800
   2307 CB         49.6700   14.9600   51.2200 c3       257 PP      -0.265900
   2308 H21        48.7300   13.5000   53.3400 hc       257 PP       0.001900
   2309 H22        49.7400   14.9100   53.9200 hc       257 PP       0.001900
   2310 H1         50.5800   13.0700   51.7500 hc       257 PP       0.001800
   2311 HB1        48.6300   14.6100   51.2100 hc       257 PP       0.063200
   2312 HB2        49.7600   15.9800   51.6100 hc       257 PP       0.063200
   2313 HB3        50.0600   15.0400   50.2000 hc       257 PP       0.063200
   2314 C2         51.9500   14.7000   52.4400 c3       258 PP      -0.006100
   2315 C1         52.8400   14.6600   51.1600 c3       258 PP       0.076800
   2316 CB         53.9700   15.6200   51.3400 c3       258 PP      -0.265900
   2317 H21        51.8200   15.7200   52.8200 hc       258 PP       0.001900
   2318 H22        52.4000   14.1300   53.2600 hc       258 PP       0.001900
   2319 H1         52.2300   15.0000   50.3100 hc       258 PP       0.001800
   2320 HB1        54.4300   15.9500   50.4000 hc       258 PP       0.063200
   2321 HB2        53.5100   16.5800   51.6000 hc       258 PP       0.063200
   2322 HB3        54.7800   15.4300   52.0700 hc       258 PP       0.063200
   2323 C2         53.4800   13.3100   50.7100 c3       259 PP      -0.006100
   2324 C1         54.7000   12.7300   51.4400 c3       259 PP       0.076800
   2325 CB         54.2900   12.2300   52.8500 c3       259 PP      -0.265900
   2326 H21        52.7100   12.5300   50.6900 hc       259 PP       0.001900
   2327 H22        53.7200   13.5000   49.6500 hc       259 PP       0.001900
   2328 H1         55.3900   13.5800   51.4900 hc       259 PP       0.001800
   2329 HB1        54.3800   12.9300   53.6900 hc       259 PP       0.063200
   2330 HB2        53.2800   11.7900   52.7700 hc       259 PP       0.063200
   2331 HB3        54.8900   11.3600   53.1200 hc       259 PP       0.063200
   2332 C2         55.2500   11.5100   50.6800 c3       260 PP      -0.006100
   2333 C1         56.7800   11.0900   51.0100 c3       260 PP       0.076800
   2334 CB         57.2500    9.8600   50.3500 c3       260 PP      -0.265900
   2335 H21        54.6400   10.6000   50.7800 hc       260 PP       0.001900
   2336 H22        55.1900   11.8000   49.6200 hc       260 PP       0.001900
   2337 H1         56.6500   10.7700   52.0500 hc       260 PP       0.001800
   2338 HB1        57.6000   10.1800   49.3600 hc       260 PP       0.063200
   2339 HB2        58.1200    9.4300   50.8700 hc       260 PP       0.063200
   2340 HB3        56.5200    9.0500   50.2200 hc       260 PP       0.063200
   2341 C2         57.7500   12.3400   50.9300 c3       261 PP      -0.006100
   2342 C1         59.3300   12.1000   51.2300 c3       261 PP       0.076800
   2343 CB         60.2300   13.0700   50.4100 c3       261 PP      -0.265900
   2344 H21        57.6700   12.7500   49.9100 hc       261 PP       0.001900
   2345 H22        57.4000   12.9800   51.7500 hc       261 PP       0.001900
   2346 H1         59.5900   11.1200   50.8200 hc       261 PP       0.001800
   2347 HB1        60.2700   14.1100   50.7700 hc       261 PP       0.063200
   2348 HB2        61.2700   12.7600   50.5600 hc       261 PP       0.063200
   2349 HB3        60.1300   13.3500   49.3600 hc       261 PP       0.063200
   2350 C2         59.7300   12.1600   52.7500 c3       262 PP      -0.006100
   2351 C1         59.1300   11.1300   53.8100 c3       262 PP       0.076800
   2352 CB         60.3400   10.5200   54.4800 c3       262 PP      -0.265900
   2353 H21        60.8200   12.1200   52.7400 hc       262 PP       0.001900
   2354 H22        59.5800   13.1900   53.1000 hc       262 PP       0.001900
   2355 H1         58.5500   10.4200   53.2100 hc       262 PP       0.001800
   2356 HB1        60.0700    9.6100   55.0300 hc       262 PP       0.063200
   2357 HB2        61.1000   10.1700   53.7700 hc       262 PP       0.063200
   2358 HB3        60.7200   11.2700   55.1800 hc       262 PP       0.063200
   2359 C2         58.0500   11.7400   54.7800 c3       263 PP      -0.006100
   2360 C1         57.5900   10.9700   56.1000 c3       263 PP       0.076800
   2361 CB         57.3700   11.9300   57.3300 c3       263 PP      -0.265900
   2362 H21        58.5500   12.6600   55.1100 hc       263 PP       0.001900
   2363 H22        57.1800   12.0800   54.2100 hc       263 PP       0.001900
   2364 H1         58.3500   10.2600   56.4600 hc       263 PP       0.001800
   2365 HB1        56.5800   12.6600   57.0900 hc       263 PP       0.063200
   2366 HB2        57.0700   11.2700   58.1500 hc       263 PP       0.063200
   2367 HB3        58.2800   12.5100   57.5000 hc       263 PP       0.063200
   2368 C2         56.1900   10.2500   55.8300 c3       264 PP      -0.006100
   2369 C1         56.2800    9.0500   54.8800 c3       264 PP       0.076800
   2370 CB         57.2500    7.9300   55.3300 c3       264 PP      -0.265900
   2371 H21        55.7800    9.9300   56.7900 hc       264 PP       0.001900
   2372 H22        55.4800   10.9000   55.3100 hc       264 PP       0.001900
   2373 H1         56.6100    9.4600   53.9200 hc       264 PP       0.001800
   2374 HB1        56.8200    7.3900   56.1800 hc       264 PP       0.063200
   2375 HB2        57.4400    7.1700   54.5600 hc       264 PP       0.063200
   2376 HB3        58.2700    8.2900   55.5500 hc       264 PP       0.063200
   2377 C2         54.8800    8.5100   54.6400 c3       265 PP      -0.006100
   2378 C1         54.6000    7.2100   53.8200 c3       265 PP       0.076800
   2379 CB         53.2900    6.4900   54.3000 c3       265 PP      -0.265900
   2380 H21        54.5100    8.3300   55.6600 hc       265 PP       0.001900
   2381 H22        54.3300    9.3400   54.1900 hc       265 PP       0.001900
   2382 H1         55.4300    6.5200   54.0500 hc       265 PP       0.001800
   2383 HB1        52.9700    5.6700   53.6500 hc       265 PP       0.063200
   2384 HB2        53.5500    6.0000   55.2600 hc       265 PP       0.063200
   2385 HB3        52.4700    7.2000   54.4300 hc       265 PP       0.063200
   2386 C2         54.6300    7.6500   52.3500 c3       266 PP      -0.006100
   2387 C1         54.7400    6.4400   51.3000 c3       266 PP       0.076800
   2388 CB         54.1800    6.8200   49.8500 c3       266 PP      -0.265900
   2389 H21        53.8200    8.3300   52.0600 hc       266 PP       0.001900
   2390 H22        55.5600    8.2300   52.3300 hc       266 PP       0.001900
   2391 H1         54.0500    5.6800   51.6600 hc       266 PP       0.001800
   2392 HB1        53.0900    6.9000   49.9700 hc       266 PP       0.063200
   2393 HB2        54.5700    7.8200   49.6100 hc       266 PP       0.063200
   2394 HB3        54.3700    6.0500   49.1000 hc       266 PP       0.063200
   2395 C2         56.1900    5.9400   51.1100 c3       267 PP      -0.006100
   2396 C1         56.2600    4.4500   51.4300 c3       267 PP       0.076800
   2397 CB         55.7100    3.6600   50.2700 c3       267 PP      -0.265900
   2398 H21        56.4700    6.1100   50.0600 hc       267 PP       0.001900
   2399 H22        56.8800    6.5400   51.7000 hc       267 PP       0.001900
   2400 H1         55.6200    4.0900   52.2400 hc       267 PP       0.001800
   2401 HB1        54.6500    3.8600   50.1000 hc       267 PP       0.063200
   2402 HB2        56.2100    4.0200   49.3600 hc       267 PP       0.063200
   2403 HB3        55.9200    2.5800   50.3100 hc       267 PP       0.063200
   2404 C2         57.6100    3.8400   51.8400 c3       268 PP      -0.006100
   2405 C1         58.0500    4.4500   53.2100 c3       268 PP       0.076800
   2406 CB         57.3900    3.6500   54.3500 c3       268 PP      -0.265900
   2407 H21        57.5400    2.7400   51.9000 hc       268 PP       0.001900
   2408 H22        58.3300    4.0100   51.0300 hc       268 PP       0.001900
   2409 H1         57.7300    5.5000   53.2000 hc       268 PP       0.001800
   2410 HB1        56.3900    3.2600   54.1100 hc       268 PP       0.063200
   2411 HB2        58.0200    2.7700   54.5100 hc       268 PP       0.063200
   2412 HB3        57.3100    4.3400   55.2000 hc       268 PP       0.063200
   2413 C2         59.6100    4.3400   53.2400 c3       269 PP      -0.006100
   2414 C1         60.1700    5.8300   53.2000 c3       269 PP       0.076800
   2415 CB         61.5500    5.9200   53.8700 c3       269 PP      -0.265900
   2416 H21        60.0500    3.9200   54.1500 hc       269 PP       0.001900
   2417 H22        59.9200    3.7500   52.3700 hc       269 PP       0.001900
   2418 H1         59.5100    6.5400   53.7300 hc       269 PP       0.001800
   2419 HB1        62.4200    5.5400   53.3200 hc       269 PP       0.063200
   2420 HB2        61.8700    6.9100   54.2300 hc       269 PP       0.063200
   2421 HB3        61.5000    5.3000   54.7700 hc       269 PP       0.063200
   2422 C2         60.1800    6.2900   51.7200 c3       270 PP      -0.006100
   2423 C1         60.6800    7.6900   51.4700 c3       270 PP       0.076800
   2424 CB         60.8800    8.0200   49.9500 c3       270 PP      -0.265900
   2425 H21        59.1700    6.3700   51.2800 hc       270 PP       0.001900
   2426 H22        60.7200    5.5900   51.0700 hc       270 PP       0.001900
   2427 H1         60.0000    8.4600   51.8500 hc       270 PP       0.001800
   2428 HB1        61.7200    7.4200   49.5800 hc       270 PP       0.063200
   2429 HB2        59.9600    7.7300   49.4300 hc       270 PP       0.063200
   2430 HB3        61.0900    9.0700   49.7200 hc       270 PP       0.063200
   2431 C2         30.4600   20.8100   49.6700 c3       271 PP      -0.006100
   2432 C1         29.5600   20.9200   50.8800 c3       271 PP       0.076800
   2433 CB         28.2400   21.7400   50.5800 c3       271 PP      -0.265900
   2434 H21        31.5000   20.6100   49.9400 hc       271 PP       0.001900
   2435 H22        30.3400   21.6800   49.0100 hc       271 PP       0.001900
   2436 H1         30.1800   21.4100   51.6300 hc       271 PP       0.001800
   2437 HB1        28.4700   22.8100   50.6500 hc       271 PP       0.063200
   2438 HB2        27.6900   21.4700   49.6800 hc       271 PP       0.063200
   2439 HB3        27.4300   21.5300   51.3000 hc       271 PP       0.063200
   2440 C2         29.0400   19.5900   51.3800 c3       272 PP      -0.006100
   2441 C1         30.1400   18.4900   51.8500 c3       272 PP       0.076800
   2442 CB         31.0400   18.9500   53.0100 c3       272 PP      -0.265900
   2443 H21        28.3500   19.8500   52.1900 hc       272 PP       0.001900
   2444 H22        28.4400   19.1200   50.6000 hc       272 PP       0.001900
   2445 H1         30.7400   18.4500   50.9300 hc       272 PP       0.001800
   2446 HB1        30.6100   18.5200   53.9200 hc       272 PP       0.063200
   2447 HB2        32.0900   18.6600   53.0200 hc       272 PP       0.063200
   2448 HB3        31.1700   20.0300   53.1500 hc       272 PP       0.063200
   2449 C2         29.5000   17.1300   52.0300 c3       273 PP      -0.006100
   2450 C1         29.0600   16.6000   50.6700 c3       273 PP       0.076800
   2451 CB         30.2500   15.8100   50.0800 c3       273 PP      -0.265900
   2452 H21        30.0700   16.3300   52.5200 hc       273 PP       0.001900
   2453 H22        28.6300   17.2400   52.6900 hc       273 PP       0.001900
   2454 H1         28.9500   17.3800   49.9100 hc       273 PP       0.001800
   2455 HB1        31.1400   16.3900   49.8100 hc       273 PP       0.063200
   2456 HB2        30.6400   15.0100   50.7200 hc       273 PP       0.063200
   2457 HB3        29.8800   15.2900   49.1800 hc       273 PP       0.063200
   2458 C2         27.7800   15.6400   50.8500 c3       274 PP      -0.006100
   2459 C1         28.0300   14.3500   51.6200 c3       274 PP       0.076800
   2460 CB         27.1300   14.1800   52.8100 c3       274 PP      -0.265900
   2461 H21        27.0700   16.2400   51.4300 hc       274 PP       0.001900
   2462 H22        27.3600   15.4500   49.8600 hc       274 PP       0.001900
   2463 H1         29.0500   14.4100   52.0100 hc       274 PP       0.001800
   2464 HB1        27.4500   13.5400   53.6400 hc       274 PP       0.063200
   2465 HB2        27.0700   15.2000   53.2200 hc       274 PP       0.063200
   2466 HB3        26.0800   13.9300   52.6100 hc       274 PP       0.063200
   2467 C2         27.9000   13.1000   50.6600 c3       275 PP      -0.006100
   2468 C1         28.4100   11.7000   51.2400 c3       275 PP       0.076800
   2469 CB         27.6400   10.5600   50.6300 c3       275 PP      -0.265900
   2470 H21        26.8400   13.0500   50.3700 hc       275 PP       0.001900
   2471 H22        28.4200   13.3800   49.7400 hc       275 PP       0.001900
   2472 H1         28.3400   11.7600   52.3300 hc       275 PP       0.001800
   2473 HB1        27.9900   10.2400   49.6400 hc       275 PP       0.063200
   2474 HB2        27.8900    9.6700   51.2200 hc       275 PP       0.063200
   2475 HB3        26.5500   10.6300   50.7000 hc       275 PP       0.063200
   2476 C2         29.9200   11.4800   50.8500 c3       276 PP      -0.006100
   2477 C1         30.5400   10.3600   51.6900 c3       276 PP       0.076800
   2478 CB         31.9600   10.2000   51.1300 c3       276 PP      -0.265900
   2479 H21        30.0000   11.3400   49.7600 hc       276 PP       0.001900
   2480 H22        30.4100   12.4500   51.0000 hc       276 PP       0.001900
   2481 H1         30.1300    9.3900   51.3800 hc       276 PP       0.001800
   2482 HB1        31.9100   10.1500   50.0400 hc       276 PP       0.063200
   2483 HB2        32.4600   11.1700   51.2500 hc       276 PP       0.063200
   2484 HB3        32.5200    9.4000   51.6300 hc       276 PP       0.063200
   2485 C2         30.4300   10.5700   53.2400 c3       277 PP      -0.006100
   2486 C1         29.3300    9.7800   53.9700 c3       277 PP       0.076800
   2487 CB         29.6700    8.2800   54.1900 c3       277 PP      -0.265900
   2488 H21        31.3800   10.2600   53.6900 hc       277 PP       0.001900
   2489 H22        30.3700   11.6500   53.4200 hc       277 PP       0.001900
   2490 H1         28.4100    9.9100   53.3800 hc       277 PP       0.001800
   2491 HB1        29.9700    7.7400   53.2900 hc       277 PP       0.063200
   2492 HB2        30.3700    8.1400   55.0200 hc       277 PP       0.063200
   2493 HB3        28.7500    7.8000   54.5400 hc       277 PP       0.063200
   2494 C2         29.1300   10.4500   55.3100 c3       278 PP      -0.006100
   2495 C1         27.7300   10.2900   56.0400 c3       278 PP       0.076800
   2496 CB         27.6600   11.0700   57.4200 c3       278 PP      -0.265900
   2497 H21        29.9800   10.3700   56.0100 hc       278 PP       0.001900
   2498 H22        29.1700   11.5100   55.0500 hc       278 PP       0.001900
   2499 H1         27.4800    9.2600   56.3300 hc       278 PP       0.001800
   2500 HB1        27.3100   12.1000   57.2700 hc       278 PP       0.063200
   2501 HB2        26.9900   10.6700   58.1900 hc       278 PP       0.063200
   2502 HB3        28.6700   10.9300   57.8400 hc       278 PP       0.063200
   2503 C2         26.6000   10.8800   55.1500 c3       279 PP      -0.006100
   2504 C1         25.6300    9.7000   54.7300 c3       279 PP       0.076800
   2505 CB         24.9200    8.9900   55.9500 c3       279 PP      -0.265900
   2506 H21        26.0000   11.6200   55.6900 hc       279 PP       0.001900
   2507 H22        26.8900   11.3100   54.1900 hc       279 PP       0.001900
   2508 H1         26.2400    8.9500   54.2200 hc       279 PP       0.001800
   2509 HB1        24.8200    7.9000   55.8400 hc       279 PP       0.063200
   2510 HB2        25.3500    9.2800   56.9100 hc       279 PP       0.063200
   2511 HB3        23.9000    9.3900   56.0400 hc       279 PP       0.063200
   2512 C2         24.6400   10.1100   53.6000 c3       280 PP      -0.006100
   2513 C1         23.5700    9.1500   53.0100 c3       280 PP       0.076800
   2514 CB         22.5600    9.9700   52.1100 c3       280 PP      -0.265900
   2515 H21        24.0200   10.9400   53.9500 hc       280 PP       0.001900
   2516 H22        25.2900   10.4200   52.7700 hc       280 PP       0.001900
   2517 H1         23.0100    8.7400   53.8600 hc       280 PP       0.001800
   2518 HB1        22.7200   11.0600   52.1600 hc       280 PP       0.063200
   2519 HB2        22.5900    9.7300   51.0400 hc       280 PP       0.063200
   2520 HB3        21.5400    9.6600   52.3800 hc       280 PP       0.063200
   2521 C2         24.2000    7.8900   52.2200 c3       281 PP      -0.006100
   2522 C1         23.2300    6.5700   52.1200 c3       281 PP       0.076800
   2523 CB         22.4200    6.2400   53.4100 c3       281 PP      -0.265900
   2524 H21        24.7800    8.1600   51.3300 hc       281 PP       0.001900
   2525 H22        25.0200    7.5500   52.8700 hc       281 PP       0.001900
   2526 H1         23.8800    5.6900   52.0000 hc       281 PP       0.001800
   2527 HB1        23.0900    6.4000   54.2700 hc       281 PP       0.063200
   2528 HB2        21.5600    6.9200   53.4600 hc       281 PP       0.063200
   2529 HB3        22.1400    5.1900   53.5000 hc       281 PP       0.063200
   2530 C2         22.3000    6.5400   50.8800 c3       282 PP      -0.006100
   2531 C1         21.2800    5.3300   50.8400 c3       282 PP       0.076800
   2532 CB         20.2700    5.6000   49.6500 c3       282 PP      -0.265900
   2533 H21        21.7900    7.5100   50.8800 hc       282 PP       0.001900
   2534 H22        22.8500    6.3200   49.9600 hc       282 PP       0.001900
   2535 H1         20.5900    5.3300   51.6900 hc       282 PP       0.001800
   2536 HB1        19.7600    6.5600   49.7500 hc       282 PP       0.063200
   2537 HB2        20.8000    5.6500   48.6900 hc       282 PP       0.063200
   2538 HB3        19.6100    4.7400   49.5300 hc       282 PP       0.063200
   2539 C2         21.8400    3.8300   50.8600 c3       283 PP      -0.006100
   2540 C1         21.0700    2.7800   51.7800 c3       283 PP       0.076800
   2541 CB         19.5900    2.6200   51.1600 c3       283 PP      -0.265900
   2542 H21        21.9600    3.3400   49.8900 hc       283 PP       0.001900
   2543 H22        22.8700    3.9200   51.2400 hc       283 PP       0.001900
   2544 H1         20.9300    3.2300   52.7700 hc       283 PP       0.001800
   2545 HB1        19.0000    1.9100   51.7400 hc       283 PP       0.063200
   2546 HB2        18.9800    3.5300   51.1700 hc       283 PP       0.063200
   2547 HB3        19.6700    2.2100   50.1500 hc       283 PP       0.063200
   2548 C2         21.8200    1.4900   51.9500 c3       284 PP      -0.006100
   2549 C1         23.3700    1.5000   52.3100 c3       284 PP       0.076800
   2550 CB         23.7400    2.3600   53.4900 c3       284 PP      -0.265900
   2551 H21        21.2400    0.8200   52.6000 hc       284 PP       0.001900
   2552 H22        21.7500    0.9100   51.0300 hc       284 PP       0.001900
   2553 H1         23.9300    1.8200   51.4300 hc       284 PP       0.001800
   2554 HB1        23.2700    3.3500   53.4400 hc       284 PP       0.063200
   2555 HB2        23.5300    1.9300   54.4800 hc       284 PP       0.063200
   2556 HB3        24.8200    2.5700   53.4800 hc       284 PP       0.063200
   2557 C2         23.8300   80.0900   52.6900 c3       285 PP      -0.006100
   2558 C1         23.8400   79.0400   51.5300 c3       285 PP       0.076800
   2559 CB         25.0700   79.3300   50.5500 c3       285 PP      -0.265900
   2560 H21        24.8400   80.1100   53.1100 hc       285 PP       0.001900
   2561 H22        23.1500   79.6100   53.4100 hc       285 PP       0.001900
   2562 H1         22.9000   79.1000   50.9600 hc       285 PP       0.001800
   2563 HB1        25.1100   80.3500   50.1400 hc       285 PP       0.063200
   2564 HB2        26.0200   79.1200   51.0500 hc       285 PP       0.063200
   2565 HB3        24.8600   78.6100   49.7500 hc       285 PP       0.063200
   2566 C2         23.9500   77.6700   52.1300 c3       286 PP      -0.006100
   2567 C1         23.9200   76.3300   51.2600 c3       286 PP       0.076800
   2568 CB         22.7300   76.3500   50.1800 c3       286 PP      -0.265900
   2569 H21        24.8000   77.6200   52.8200 hc       286 PP       0.001900
   2570 H22        23.1000   77.5200   52.8000 hc       286 PP       0.001900
   2571 H1         23.6200   75.5100   51.9300 hc       286 PP       0.001800
   2572 HB1        23.0300   76.9200   49.2900 hc       286 PP       0.063200
   2573 HB2        22.5500   75.3100   49.9000 hc       286 PP       0.063200
   2574 HB3        21.8300   76.7800   50.6400 hc       286 PP       0.063200
   2575 C2         25.3600   75.8700   50.7600 c3       287 PP      -0.006100
   2576 C1         25.5300   74.3500   50.4400 c3       287 PP       0.076800
   2577 CB         26.9000   74.0500   49.9100 c3       287 PP      -0.265900
   2578 H21        25.5300   76.5400   49.9000 hc       287 PP       0.001900
   2579 H22        26.0900   76.2100   51.5100 hc       287 PP       0.001900
   2580 H1         24.8300   74.0900   49.6300 hc       287 PP       0.001800
   2581 HB1        27.1900   74.8500   49.2200 hc       287 PP       0.063200
   2582 HB2        27.6700   73.9900   50.6900 hc       287 PP       0.063200
   2583 HB3        26.9700   73.0100   49.5600 hc       287 PP       0.063200
   2584 C2         25.0200   73.3200   51.5100 c3       288 PP      -0.006100
   2585 C1         25.5600   73.4600   52.9700 c3       288 PP       0.076800
   2586 CB         24.5400   73.9800   54.0100 c3       288 PP      -0.265900
   2587 H21        23.9300   73.2200   51.4300 hc       288 PP       0.001900
   2588 H22        25.2400   72.3200   51.1100 hc       288 PP       0.001900
   2589 H1         26.4400   74.1200   52.9900 hc       288 PP       0.001800
   2590 HB1        23.6300   73.3700   54.0800 hc       288 PP       0.063200
   2591 HB2        25.0800   74.0300   54.9700 hc       288 PP       0.063200
   2592 HB3        24.1200   74.9900   53.8500 hc       288 PP       0.063200
   2593 C2         26.0000   72.0400   53.4100 c3       289 PP      -0.006100
   2594 C1         27.2200   71.4100   52.6300 c3       289 PP       0.076800
   2595 CB         28.5500   71.8400   53.3400 c3       289 PP      -0.265900
   2596 H21        26.2800   72.0500   54.4700 hc       289 PP       0.001900
   2597 H22        25.1300   71.3700   53.3700 hc       289 PP       0.001900
   2598 H1         27.3900   71.9000   51.6600 hc       289 PP       0.001800
   2599 HB1        28.6000   72.9300   53.3200 hc       289 PP       0.063200
   2600 HB2        28.6400   71.5300   54.3900 hc       289 PP       0.063200
   2601 HB3        29.3800   71.5100   52.7000 hc       289 PP       0.063200
   2602 C2         27.1700   69.9200   52.4200 c3       290 PP      -0.006100
   2603 C1         26.1300   69.4500   51.4100 c3       290 PP       0.076800
   2604 CB         26.4900   69.7800   49.9100 c3       290 PP      -0.265900
   2605 H21        28.1700   69.5500   52.1500 hc       290 PP       0.001900
   2606 H22        26.9200   69.5200   53.4100 hc       290 PP       0.001900
   2607 H1         25.1600   69.8300   51.7500 hc       290 PP       0.001800
   2608 HB1        25.6700   69.4900   49.2400 hc       290 PP       0.063200
   2609 HB2        26.7100   70.8400   49.7500 hc       290 PP       0.063200
   2610 HB3        27.2700   69.2100   49.4000 hc       290 PP       0.063200
   2611 C2         26.1600   67.8700   51.5700 c3       291 PP      -0.006100
   2612 C1         25.0500   67.0600   50.8900 c3       291 PP       0.076800
   2613 CB         25.2700   65.5000   50.9400 c3       291 PP      -0.265900
   2614 H21        27.1100   67.5500   51.1300 hc       291 PP       0.001900
   2615 H22        26.2500   67.7400   52.6600 hc       291 PP       0.001900
   2616 H1         25.0600   67.2900   49.8200 hc       291 PP       0.001800
   2617 HB1        26.3100   65.3700   50.6200 hc       291 PP       0.063200
   2618 HB2        25.1800   65.2100   51.9900 hc       291 PP       0.063200
   2619 HB3        24.5700   64.8400   50.4100 hc       291 PP       0.063200
   2620 C2         23.5400   67.4600   51.3300 c3       292 PP      -0.006100
   2621 C1         22.8400   66.5900   52.4100 c3       292 PP       0.076800
   2622 CB         23.0800   67.2600   53.8400 c3       292 PP      -0.265900
   2623 H21        23.6200   68.5200   51.6000 hc       292 PP       0.001900
   2624 H22        22.9900   67.5000   50.3800 hc       292 PP       0.001900
   2625 H1         23.0800   65.5200   52.3700 hc       292 PP       0.001800
   2626 HB1        22.3000   68.0000   54.0200 hc       292 PP       0.063200
   2627 HB2        23.1200   66.4900   54.6300 hc       292 PP       0.063200
   2628 HB3        24.0500   67.7600   53.7700 hc       292 PP       0.063200
   2629 C2         21.2500   66.6200   52.1200 c3       293 PP      -0.006100
   2630 C1         20.7700   66.0300   50.7500 c3       293 PP       0.076800
   2631 CB         21.5300   64.7000   50.4900 c3       293 PP      -0.265900
   2632 H21        20.7600   66.0900   52.9500 hc       293 PP       0.001900
   2633 H22        20.9800   67.6700   52.2400 hc       293 PP       0.001900
   2634 H1         21.0600   66.7000   49.9300 hc       293 PP       0.001800
   2635 HB1        20.9300   63.9900   49.9100 hc       293 PP       0.063200
   2636 HB2        22.3800   64.9200   49.8400 hc       293 PP       0.063200
   2637 HB3        21.9700   64.1700   51.3500 hc       293 PP       0.063200
   2638 C2         19.2100   65.7800   50.5800 c3       294 PP      -0.006100
   2639 C1         18.2700   66.9200   51.1400 c3       294 PP       0.076800
   2640 CB         18.5300   68.2600   50.4100 c3       294 PP      -0.265900
   2641 H21        19.0200   65.5600   49.5200 hc       294 PP       0.001900
   2642 H22        18.9700   64.8900   51.1700 hc       294 PP       0.001900
   2643 H1         18.5300   67.0800   52.2000 hc       294 PP       0.001800
   2644 HB1        18.0300   68.2300   49.4300 hc       294 PP       0.063200
   2645 HB2        18.1900   69.1400   50.9700 hc       294 PP       0.063200
   2646 HB3        19.6000   68.3900   50.2100 hc       294 PP       0.063200
   2647 C2         16.7200   66.5000   51.2100 c3       295 PP      -0.006100
   2648 C1         15.8500   67.5200   52.0000 c3       295 PP       0.076800
   2649 CB         15.1500   68.5200   51.1100 c3       295 PP      -0.265900
   2650 H21        16.2900   66.3600   50.2100 hc       295 PP       0.001900
   2651 H22        16.8100   65.5200   51.7100 hc       295 PP       0.001900
   2652 H1         16.4500   68.1800   52.6400 hc       295 PP       0.001800
   2653 HB1        14.7700   69.3400   51.7400 hc       295 PP       0.063200
   2654 HB2        15.9500   68.9000   50.4600 hc       295 PP       0.063200
   2655 HB3        14.3800   68.0800   50.4700 hc       295 PP       0.063200
   2656 C2         14.6800   66.8900   52.8400 c3       296 PP      -0.006100
   2657 C1         15.0300   65.6300   53.7400 c3       296 PP       0.076800
   2658 CB         15.8400   66.0300   55.0000 c3       296 PP      -0.265900
   2659 H21        14.1700   67.7000   53.3900 hc       296 PP       0.001900
   2660 H22        13.9100   66.5900   52.1200 hc       296 PP       0.001900
   2661 H1         15.5400   64.8200   53.2000 hc       296 PP       0.001800
   2662 HB1        16.6500   66.7000   54.7000 hc       296 PP       0.063200
   2663 HB2        15.3000   66.6400   55.7400 hc       296 PP       0.063200
   2664 HB3        16.2900   65.1700   55.5000 hc       296 PP       0.063200
   2665 C2         13.6200   64.9200   54.1900 c3       297 PP      -0.006100
   2666 C1         13.6900   63.7900   55.2800 c3       297 PP       0.076800
   2667 CB         12.3200   63.6200   55.9700 c3       297 PP      -0.265900
   2668 H21        12.9600   65.7100   54.5800 hc       297 PP       0.001900
   2669 H22        13.1700   64.4000   53.3300 hc       297 PP       0.001900
   2670 H1         14.3400   64.1400   56.1000 hc       297 PP       0.001800
   2671 HB1        11.6000   63.2900   55.2200 hc       297 PP       0.063200
   2672 HB2        12.4400   62.8800   56.7700 hc       297 PP       0.063200
   2673 HB3        12.0100   64.5200   56.5300 hc       297 PP       0.063200
   2674 C2         14.3000   62.4900   54.7800 c3       298 PP      -0.006100
   2675 C1         14.6300   61.2900   55.8600 c3       298 PP       0.076800
   2676 CB         15.4100   61.8500   57.0900 c3       298 PP      -0.265900
   2677 H21        13.6000   61.9400   54.1200 hc       298 PP       0.001900
   2678 H22        15.2400   62.7500   54.2800 hc       298 PP       0.001900
   2679 H1         15.2900   60.7000   55.2100 hc       298 PP       0.001800
   2680 HB1        14.8100   62.4300   57.8100 hc       298 PP       0.063200
   2681 HB2        15.8200   61.0000   57.6400 hc       298 PP       0.063200
   2682 HB3        16.2800   62.3700   56.6900 hc       298 PP       0.063200
   2683 C2         13.2600   60.4300   56.2200 c3       299 PP      -0.006100
   2684 C1         13.3800   58.9300   55.7800 c3       299 PP       0.076800
   2685 CB         14.5700   58.2400   56.4500 c3       299 PP      -0.265900
   2686 H21        12.9700   60.5600   57.2700 hc       299 PP       0.001900
   2687 H22        12.4200   60.8100   55.6200 hc       299 PP       0.001900
   2688 H1         13.5800   58.9400   54.7100 hc       299 PP       0.001800
   2689 HB1        14.3700   58.4700   57.5000 hc       299 PP       0.063200
   2690 HB2        14.6400   57.1700   56.2300 hc       299 PP       0.063200
   2691 HB3        15.4800   58.7500   56.1100 hc       299 PP       0.063200
   2692 C2         11.9500   58.3100   55.9300 c3       300 PP      -0.006100
   2693 C1         11.9800   56.7600   55.8200 c3       300 PP       0.076800
   2694 CB         10.5300   56.2800   55.8800 c3       300 PP      -0.265900
   2695 H21        11.3400   58.8300   55.1800 hc       300 PP       0.001900
   2696 H22        11.5700   58.5100   56.9400 hc       300 PP       0.001900
   2697 H1         12.3900   56.5400   54.8200 hc       300 PP       0.001800
   2698 HB1         9.8900   56.8000   55.1600 hc       300 PP       0.063200
   2699 HB2        10.4200   55.2000   55.6900 hc       300 PP       0.063200
   2700 HB3        10.2500   56.4000   56.9300 hc       300 PP       0.063200
   2701 C2         14.6500   60.7500   60.6800 c3       301 PP      -0.006100
   2702 C1         15.5700   59.5100   60.9900 c3       301 PP       0.076800
   2703 CB         16.9700   60.1200   61.3700 c3       301 PP      -0.265900
   2704 H21        14.6300   61.4600   61.5100 hc       301 PP       0.001900
   2705 H22        13.6500   60.3700   60.4700 hc       301 PP       0.001900
   2706 H1         15.6700   58.9700   60.0400 hc       301 PP       0.001800
   2707 HB1        17.7400   59.4000   61.6700 hc       301 PP       0.063200
   2708 HB2        17.3100   60.6600   60.4800 hc       301 PP       0.063200
   2709 HB3        16.7800   60.8700   62.1500 hc       301 PP       0.063200
   2710 C2         15.0900   58.6000   62.1300 c3       302 PP      -0.006100
   2711 C1         14.5700   57.1600   61.7100 c3       302 PP       0.076800
   2712 CB         14.8300   56.1000   62.8400 c3       302 PP      -0.265900
   2713 H21        15.9200   58.5300   62.8500 hc       302 PP       0.001900
   2714 H22        14.3600   59.0900   62.7800 hc       302 PP       0.001900
   2715 H1         15.1900   56.9200   60.8300 hc       302 PP       0.001800
   2716 HB1        14.1900   56.2500   63.7200 hc       302 PP       0.063200
   2717 HB2        14.3900   55.1600   62.4800 hc       302 PP       0.063200
   2718 HB3        15.8700   55.9000   63.1300 hc       302 PP       0.063200
   2719 C2         13.0300   57.3200   61.1800 c3       303 PP      -0.006100
   2720 C1         12.3900   56.1300   60.4300 c3       303 PP       0.076800
   2721 CB         10.9300   56.5400   60.0500 c3       303 PP      -0.265900
   2722 H21        12.5100   57.5100   62.1300 hc       303 PP       0.001900
   2723 H22        13.0800   58.2000   60.5300 hc       303 PP       0.001900
   2724 H1         12.4800   55.2100   61.0300 hc       303 PP       0.001800
   2725 HB1        10.9300   57.5200   59.5500 hc       303 PP       0.063200
   2726 HB2        10.5400   55.8300   59.3100 hc       303 PP       0.063200
   2727 HB3        10.2700   56.5500   60.9200 hc       303 PP       0.063200
   2728 C2         13.2300   55.8900   59.1100 c3       304 PP      -0.006100
   2729 C1         14.2100   54.6400   59.2100 c3       304 PP       0.076800
   2730 CB         13.4000   53.3100   59.1000 c3       304 PP      -0.265900
   2731 H21        12.5000   55.6600   58.3300 hc       304 PP       0.001900
   2732 H22        13.7600   56.7900   58.7700 hc       304 PP       0.001900
   2733 H1         14.6400   54.6300   60.2200 hc       304 PP       0.001800
   2734 HB1        12.5300   53.3300   59.7700 hc       304 PP       0.063200
   2735 HB2        13.0600   53.2500   58.0600 hc       304 PP       0.063200
   2736 HB3        14.0300   52.4400   59.3000 hc       304 PP       0.063200
   2737 C2         15.3700   54.6300   58.2200 c3       305 PP      -0.006100
   2738 C1         16.6300   53.8300   58.5900 c3       305 PP       0.076800
   2739 CB         16.8800   52.7500   57.5500 c3       305 PP      -0.265900
   2740 H21        14.9800   54.4400   57.2100 hc       305 PP       0.001900
   2741 H22        15.6900   55.6600   58.0300 hc       305 PP       0.001900
   2742 H1         16.5700   53.4500   59.6200 hc       305 PP       0.001800
   2743 HB1        15.9700   52.1500   57.3700 hc       305 PP       0.063200
   2744 HB2        17.1100   53.3000   56.6300 hc       305 PP       0.063200
   2745 HB3        17.6600   52.0500   57.8700 hc       305 PP       0.063200
   2746 C2         17.9500   54.7100   58.6300 c3       306 PP      -0.006100
   2747 C1         17.9300   55.9500   59.5700 c3       306 PP       0.076800
   2748 CB         17.9400   55.4800   61.0900 c3       306 PP      -0.265900
   2749 H21        18.7600   53.9900   58.7700 hc       306 PP       0.001900
   2750 H22        18.0600   55.0900   57.6100 hc       306 PP       0.001900
   2751 H1         17.0700   56.5900   59.3400 hc       306 PP       0.001800
   2752 HB1        18.0300   56.2200   61.8900 hc       306 PP       0.063200
   2753 HB2        17.1100   54.8200   61.3700 hc       306 PP       0.063200
   2754 HB3        18.8700   54.9100   61.2100 hc       306 PP       0.063200
   2755 C2         19.0100   57.0600   59.2400 c3       307 PP      -0.006100
   2756 C1         19.0200   57.8000   57.8700 c3       307 PP       0.076800
   2757 CB         17.6000   58.5200   57.7100 c3       307 PP      -0.265900
   2758 H21        19.0000   57.8100   60.0400 hc       307 PP       0.001900
   2759 H22        19.9500   56.5000   59.3000 hc       307 PP       0.001900
   2760 H1         19.1400   56.9600   57.1800 hc       307 PP       0.001800
   2761 HB1        17.7000   59.2900   56.9300 hc       307 PP       0.063200
   2762 HB2        16.8300   57.7900   57.4400 hc       307 PP       0.063200
   2763 HB3        17.2900   59.1000   58.5900 hc       307 PP       0.063200
   2764 C2         20.2500   58.6900   57.7600 c3       308 PP      -0.006100
   2765 C1         21.5100   57.9700   57.1100 c3       308 PP       0.076800
   2766 CB         21.2000   57.6100   55.6100 c3       308 PP      -0.265900
   2767 H21        20.0100   59.5100   57.0700 hc       308 PP       0.001900
   2768 H22        20.4700   59.0900   58.7600 hc       308 PP       0.001900
   2769 H1         21.6800   57.0400   57.6600 hc       308 PP       0.001800
   2770 HB1        20.8300   56.5900   55.4600 hc       308 PP       0.063200
   2771 HB2        20.5700   58.2900   55.0300 hc       308 PP       0.063200
   2772 HB3        22.0600   57.6000   54.9300 hc       308 PP       0.063200
   2773 C2         22.7800   58.9100   57.1800 c3       309 PP      -0.006100
   2774 C1         23.4500   59.1300   58.5800 c3       309 PP       0.076800
   2775 CB         22.7300   60.3400   59.2900 c3       309 PP      -0.265900
   2776 H21        23.4600   58.2600   56.6000 hc       309 PP       0.001900
   2777 H22        22.5200   59.8200   56.6400 hc       309 PP       0.001900
   2778 H1         24.4900   59.4400   58.4100 hc       309 PP       0.001800
   2779 HB1        23.4500   61.0600   59.6900 hc       309 PP       0.063200
   2780 HB2        22.1500   61.0200   58.6500 hc       309 PP       0.063200
   2781 HB3        22.1300   60.0700   60.1700 hc       309 PP       0.063200
   2782 C2         23.5400   57.8300   59.4000 c3       310 PP      -0.006100
   2783 C1         24.2500   58.0700   60.7100 c3       310 PP       0.076800
   2784 CB         24.0300   56.8800   61.7000 c3       310 PP      -0.265900
   2785 H21        22.5500   57.3900   59.6100 hc       310 PP       0.001900
   2786 H22        24.1500   57.0700   58.8900 hc       310 PP       0.001900
   2787 H1         23.7200   58.9500   61.1100 hc       310 PP       0.001800
   2788 HB1        24.3300   57.2100   62.7000 hc       310 PP       0.063200
   2789 HB2        23.0200   56.4800   61.8600 hc       310 PP       0.063200
   2790 HB3        24.6400   56.0000   61.5000 hc       310 PP       0.063200
   2791 C2         25.7400   58.5300   60.6500 c3       311 PP      -0.006100
   2792 C1         26.8100   57.6800   59.8800 c3       311 PP       0.076800
   2793 CB         26.8600   57.7700   58.2800 c3       311 PP      -0.265900
   2794 H21        25.8000   59.4900   60.1200 hc       311 PP       0.001900
   2795 H22        26.0900   58.7000   61.6700 hc       311 PP       0.001900
   2796 H1         26.5600   56.6300   60.1100 hc       311 PP       0.001800
   2797 HB1        27.5800   57.0800   57.8200 hc       311 PP       0.063200
   2798 HB2        25.8800   57.5200   57.8800 hc       311 PP       0.063200
   2799 HB3        27.1400   58.7800   57.9500 hc       311 PP       0.063200
   2800 C2         28.4500   57.8800   60.4100 c3       312 PP      -0.006100
   2801 C1         29.0700   59.2700   60.1400 c3       312 PP       0.076800
   2802 CB         28.5100   60.2300   61.1300 c3       312 PP      -0.265900
   2803 H21        28.5500   57.6600   61.4800 hc       312 PP       0.001900
   2804 H22        29.0700   57.1900   59.8300 hc       312 PP       0.001900
   2805 H1         28.7400   59.6200   59.1500 hc       312 PP       0.001800
   2806 HB1        29.1200   61.1400   61.1300 hc       312 PP       0.063200
   2807 HB2        27.4400   60.4700   61.0400 hc       312 PP       0.063200
   2808 HB3        28.5800   59.7900   62.1300 hc       312 PP       0.063200
   2809 C2         30.6800   59.1800   60.2200 c3       313 PP      -0.006100
   2810 C1         31.4300   58.5900   59.0200 c3       313 PP       0.076800
   2811 CB         30.9000   59.0500   57.6900 c3       313 PP      -0.265900
   2812 H21        31.0300   60.2200   60.3100 hc       313 PP       0.001900
   2813 H22        30.9300   58.7300   61.1900 hc       313 PP       0.001900
   2814 H1         31.3400   57.5000   59.1300 hc       313 PP       0.001800
   2815 HB1        29.9200   58.5800   57.5500 hc       313 PP       0.063200
   2816 HB2        30.7400   60.1300   57.6600 hc       313 PP       0.063200
   2817 HB3        31.5000   58.6300   56.8800 hc       313 PP       0.063200
   2818 C2         32.9900   58.8800   59.0900 c3       314 PP      -0.006100
   2819 C1         33.8100   57.5100   59.1200 c3       314 PP       0.076800
   2820 CB         35.2400   57.8100   58.6300 c3       314 PP      -0.265900
   2821 H21        33.3100   59.3000   58.1300 hc       314 PP       0.001900
   2822 H22        33.2900   59.5200   59.9300 hc       314 PP       0.001900
   2823 H1         33.3800   56.7600   58.4400 hc       314 PP       0.001800
   2824 HB1        35.9600   58.2400   59.3300 hc       314 PP       0.063200
   2825 HB2        35.5700   56.8000   58.3300 hc       314 PP       0.063200
   2826 HB3        35.1600   58.4800   57.7700 hc       314 PP       0.063200
   2827 C2         33.7500   56.8500   60.5400 c3       315 PP      -0.006100
   2828 C1         32.8900   55.5600   60.7700 c3       315 PP       0.076800
   2829 CB         33.1700   54.4600   59.7700 c3       315 PP      -0.265900
   2830 H21        34.7600   56.5500   60.8300 hc       315 PP       0.001900
   2831 H22        33.5600   57.6000   61.3300 hc       315 PP       0.001900
   2832 H1         31.8200   55.7600   60.6500 hc       315 PP       0.001800
   2833 HB1        34.2200   54.1500   59.7600 hc       315 PP       0.063200
   2834 HB2        32.5400   53.5800   59.9600 hc       315 PP       0.063200
   2835 HB3        32.9100   54.7500   58.7500 hc       315 PP       0.063200
   2836 C2         33.0800   54.9200   62.1400 c3       316 PP      -0.006100
   2837 C1         32.4900   55.6000   63.4400 c3       316 PP       0.076800
   2838 CB         31.0300   56.0700   63.2200 c3       316 PP      -0.265900
   2839 H21        32.6300   53.9100   62.1100 hc       316 PP       0.001900
   2840 H22        34.1600   54.8000   62.2400 hc       316 PP       0.001900
   2841 H1         33.0900   56.5000   63.6000 hc       316 PP       0.001800
   2842 HB1        30.4800   55.3300   62.6300 hc       316 PP       0.063200
   2843 HB2        30.4800   56.1300   64.1700 hc       316 PP       0.063200
   2844 HB3        31.1200   56.9700   62.6100 hc       316 PP       0.063200
   2845 C2         32.4800   54.6000   64.6900 c3       317 PP      -0.006100
   2846 C1         33.8300   54.4700   65.4000 c3       317 PP       0.076800
   2847 CB         34.2500   55.8800   65.9100 c3       317 PP      -0.265900
   2848 H21        31.8200   55.0000   65.4700 hc       317 PP       0.001900
   2849 H22        32.1100   53.6000   64.4800 hc       317 PP       0.001900
   2850 H1         34.5100   54.0300   64.6600 hc       317 PP       0.001800
   2851 HB1        35.0600   55.8300   66.6500 hc       317 PP       0.063200
   2852 HB2        34.7000   56.2900   65.0000 hc       317 PP       0.063200
   2853 HB3        33.4100   56.5000   66.2500 hc       317 PP       0.063200
   2854 C2         33.7800   53.4900   66.6100 c3       318 PP      -0.006100
   2855 C1         34.1300   52.0100   66.4000 c3       318 PP       0.076800
   2856 CB         32.9300   51.0700   66.2700 c3       318 PP      -0.265900
   2857 H21        34.4600   53.9300   67.3500 hc       318 PP       0.001900
   2858 H22        32.7800   53.4900   67.0700 hc       318 PP       0.001900
   2859 H1         34.5800   51.6800   67.3400 hc       318 PP       0.001800
   2860 HB1        32.4600   51.2100   65.2900 hc       318 PP       0.063200
   2861 HB2        33.2400   50.0200   66.2300 hc       318 PP       0.063200
   2862 HB3        32.1800   51.1300   67.0700 hc       318 PP       0.063200
   2863 C2         35.1200   51.6400   65.3100 c3       319 PP      -0.006100
   2864 C1         36.5900   52.1900   65.4600 c3       319 PP       0.076800
   2865 CB         37.2000   51.8900   66.8200 c3       319 PP      -0.265900
   2866 H21        35.1900   50.5400   65.2700 hc       319 PP       0.001900
   2867 H22        34.7200   51.9400   64.3300 hc       319 PP       0.001900
   2868 H1         36.7600   53.2700   65.3100 hc       319 PP       0.001800
   2869 HB1        38.2600   52.1700   66.9200 hc       319 PP       0.063200
   2870 HB2        36.6200   52.3400   67.6300 hc       319 PP       0.063200
   2871 HB3        37.2100   50.8000   66.8700 hc       319 PP       0.063200
   2872 C2         37.5300   51.4800   64.4500 c3       320 PP      -0.006100
   2873 C1         37.1400   51.7700   62.8900 c3       320 PP       0.076800
   2874 CB         36.8700   53.3200   62.6500 c3       320 PP      -0.265900
   2875 H21        38.5100   51.9600   64.6000 hc       320 PP       0.001900
   2876 H22        37.6200   50.4400   64.8000 hc       320 PP       0.001900
   2877 H1         36.3000   51.1900   62.5000 hc       320 PP       0.001800
   2878 HB1        36.4900   53.5300   61.6400 hc       320 PP       0.063200
   2879 HB2        36.1700   53.8000   63.3400 hc       320 PP       0.063200
   2880 HB3        37.7400   53.9600   62.8200 hc       320 PP       0.063200
   2881 C2         38.2400   51.2200   61.9200 c3       321 PP      -0.006100
   2882 C1         38.3800   49.6700   61.9500 c3       321 PP       0.076800
   2883 CB         37.3600   49.0400   61.0300 c3       321 PP      -0.265900
   2884 H21        38.0200   51.4900   60.8800 hc       321 PP       0.001900
   2885 H22        39.2400   51.6600   62.0800 hc       321 PP       0.001900
   2886 H1         38.1100   49.4000   62.9800 hc       321 PP       0.001800
   2887 HB1        37.2200   49.6000   60.0900 hc       321 PP       0.063200
   2888 HB2        37.5700   47.9900   60.7600 hc       321 PP       0.063200
   2889 HB3        36.3700   48.9600   61.4800 hc       321 PP       0.063200
   2890 C2         39.7600   49.1300   61.6400 c3       322 PP      -0.006100
   2891 C1         40.0900   47.9600   62.6600 c3       322 PP       0.076800
   2892 CB         41.2500   47.1400   62.1800 c3       322 PP      -0.265900
   2893 H21        39.8400   48.8200   60.5900 hc       322 PP       0.001900
   2894 H22        40.4800   49.9100   61.9100 hc       322 PP       0.001900
   2895 H1         39.1700   47.3800   62.5300 hc       322 PP       0.001800
   2896 HB1        41.9700   47.6600   61.5400 hc       322 PP       0.063200
   2897 HB2        41.8700   46.6900   62.9700 hc       322 PP       0.063200
   2898 HB3        40.9500   46.2400   61.6400 hc       322 PP       0.063200
   2899 C2         40.5200   48.5800   63.9900 c3       323 PP      -0.006100
   2900 C1         40.1700   47.6700   65.2100 c3       323 PP       0.076800
   2901 CB         40.7700   48.1200   66.5600 c3       323 PP      -0.265900
   2902 H21        41.5900   48.8000   64.0300 hc       323 PP       0.001900
   2903 H22        39.9700   49.5200   64.1200 hc       323 PP       0.001900
   2904 H1         40.6900   46.7300   65.0000 hc       323 PP       0.001800
   2905 HB1        41.0600   47.2700   67.1800 hc       323 PP       0.063200
   2906 HB2        41.7700   48.5200   66.3600 hc       323 PP       0.063200
   2907 HB3        40.1300   48.9000   67.0000 hc       323 PP       0.063200
   2908 C2         38.5900   47.4400   65.3100 c3       324 PP      -0.006100
   2909 C1         38.1900   46.4500   66.4000 c3       324 PP       0.076800
   2910 CB         36.9900   47.1200   67.0900 c3       324 PP      -0.265900
   2911 H21        38.0500   48.3900   65.4500 hc       324 PP       0.001900
   2912 H22        38.0700   47.1100   64.4000 hc       324 PP       0.001900
   2913 H1         38.9100   46.4000   67.2300 hc       324 PP       0.001800
   2914 HB1        36.6200   46.3500   67.7800 hc       324 PP       0.063200
   2915 HB2        37.3700   47.9400   67.7100 hc       324 PP       0.063200
   2916 HB3        36.1500   47.3500   66.4200 hc       324 PP       0.063200
   2917 C2         37.8500   45.0000   65.8300 c3       325 PP      -0.006100
   2918 C1         39.0400   44.1500   65.2700 c3       325 PP       0.076800
   2919 CB         40.1200   43.8700   66.3400 c3       325 PP      -0.265900
   2920 H21        37.4600   44.5100   66.7300 hc       325 PP       0.001900
   2921 H22        37.0800   45.1200   65.0600 hc       325 PP       0.001900
   2922 H1         39.5100   44.7000   64.4500 hc       325 PP       0.001800
   2923 HB1        41.0400   43.5700   65.8300 hc       325 PP       0.063200
   2924 HB2        40.3900   44.8300   66.8100 hc       325 PP       0.063200
   2925 HB3        39.8000   43.2300   67.1600 hc       325 PP       0.063200
   2926 C2         38.4300   42.8500   64.7600 c3       326 PP      -0.006100
   2927 C1         39.4300   41.7600   64.1200 c3       326 PP       0.076800
   2928 CB         40.3700   42.4300   63.1600 c3       326 PP      -0.265900
   2929 H21        37.8600   42.4000   65.5800 hc       326 PP       0.001900
   2930 H22        37.7200   43.1100   63.9600 hc       326 PP       0.001900
   2931 H1         38.7600   41.0900   63.5800 hc       326 PP       0.001800
   2932 HB1        41.2900   42.7500   63.6800 hc       326 PP       0.063200
   2933 HB2        40.6000   41.6900   62.3800 hc       326 PP       0.063200
   2934 HB3        40.0300   43.3300   62.6200 hc       326 PP       0.063200
   2935 C2         40.0500   40.7900   65.2400 c3       327 PP      -0.006100
   2936 C1         39.9900   39.3000   64.7800 c3       327 PP       0.076800
   2937 CB         41.2500   38.9900   63.9700 c3       327 PP      -0.265900
   2938 H21        41.0700   41.0400   65.5500 hc       327 PP       0.001900
   2939 H22        39.4400   40.8500   66.1500 hc       327 PP       0.001900
   2940 H1         39.0600   39.2000   64.2100 hc       327 PP       0.001800
   2941 HB1        41.2100   39.5500   63.0300 hc       327 PP       0.063200
   2942 HB2        42.1500   39.3300   64.5000 hc       327 PP       0.063200
   2943 HB3        41.2400   37.9600   63.6000 hc       327 PP       0.063200
   2944 C2         39.8600   38.3700   66.0300 c3       328 PP      -0.006100
   2945 C1         39.3900   36.9000   65.6100 c3       328 PP       0.076800
   2946 CB         39.7700   35.9500   66.7300 c3       328 PP      -0.265900
   2947 H21        40.8100   38.3800   66.5800 hc       328 PP       0.001900
   2948 H22        39.2500   38.6900   66.8800 hc       328 PP       0.001900
   2949 H1         39.9600   36.6100   64.7100 hc       328 PP       0.001800
   2950 HB1        39.1600   36.0500   67.6300 hc       328 PP       0.063200
   2951 HB2        39.7600   34.9000   66.4000 hc       328 PP       0.063200
   2952 HB3        40.8000   36.1100   67.0600 hc       328 PP       0.063200
   2953 C2         37.8500   36.8000   65.2800 c3       329 PP      -0.006100
   2954 C1         37.3400   35.7100   64.2200 c3       329 PP       0.076800
   2955 CB         35.8700   35.2500   64.4400 c3       329 PP      -0.265900
   2956 H21        37.3500   36.5600   66.2300 hc       329 PP       0.001900
   2957 H22        37.3400   37.7600   65.1000 hc       329 PP       0.001900
   2958 H1         38.0900   34.9500   64.4700 hc       329 PP       0.001800
   2959 HB1        35.1900   36.0900   64.2300 hc       329 PP       0.063200
   2960 HB2        35.6500   34.4100   63.7700 hc       329 PP       0.063200
   2961 HB3        35.8200   34.8300   65.4600 hc       329 PP       0.063200
   2962 C2         37.6500   36.1400   62.8200 c3       330 PP      -0.006100
   2963 C1         37.6200   35.0200   61.7600 c3       330 PP       0.076800
   2964 CB         37.9500   35.4300   60.3600 c3       330 PP      -0.265900
   2965 H21        38.6600   36.5700   62.7900 hc       330 PP       0.001900
   2966 H22        36.7600   36.6800   62.4800 hc       330 PP       0.001900
   2967 H1         36.6300   34.5700   61.8200 hc       330 PP       0.001800
   2968 HB1        37.1200   35.9300   59.8400 hc       330 PP       0.063200
   2969 HB2        38.8700   36.0200   60.2600 hc       330 PP       0.063200
   2970 HB3        38.1700   34.5500   59.7500 hc       330 PP       0.063200
   2971 C2         45.1700   33.0100   56.1500 c3       331 PP      -0.006100
   2972 C1         44.1000   33.9600   55.5200 c3       331 PP       0.076800
   2973 CB         44.6700   34.4500   54.2400 c3       331 PP      -0.265900
   2974 H21        44.8100   32.2300   56.8400 hc       331 PP       0.001900
   2975 H22        45.8400   33.6400   56.7400 hc       331 PP       0.001900
   2976 H1         43.9700   34.8700   56.1200 hc       331 PP       0.001800
   2977 HB1        45.2400   33.6300   53.7800 hc       331 PP       0.063200
   2978 HB2        43.9100   34.8600   53.5600 hc       331 PP       0.063200
   2979 HB3        45.3500   35.2900   54.4100 hc       331 PP       0.063200
   2980 C2         42.6300   33.3000   55.2000 c3       332 PP      -0.006100
   2981 C1         41.7900   32.8900   56.5200 c3       332 PP       0.076800
   2982 CB         41.6700   34.0600   57.5200 c3       332 PP      -0.265900
   2983 H21        42.0400   34.0900   54.7300 hc       332 PP       0.001900
   2984 H22        42.6600   32.5300   54.4200 hc       332 PP       0.001900
   2985 H1         42.3100   32.0700   57.0200 hc       332 PP       0.001800
   2986 HB1        41.1400   34.9100   57.0800 hc       332 PP       0.063200
   2987 HB2        41.0700   33.7700   58.3900 hc       332 PP       0.063200
   2988 HB3        42.6700   34.3500   57.8600 hc       332 PP       0.063200
   2989 C2         40.4000   32.3900   56.1000 c3       333 PP      -0.006100
   2990 C1         40.2000   30.7900   56.0900 c3       333 PP       0.076800
   2991 CB         38.6400   30.4500   55.9100 c3       333 PP      -0.265900
   2992 H21        39.6800   32.8700   56.7700 hc       333 PP       0.001900
   2993 H22        40.1600   32.8300   55.1200 hc       333 PP       0.001900
   2994 H1         40.5500   30.3600   57.0300 hc       333 PP       0.001800
   2995 HB1        38.3000   30.4900   54.8700 hc       333 PP       0.063200
   2996 HB2        38.4500   29.4600   56.3400 hc       333 PP       0.063200
   2997 HB3        38.0600   31.2200   56.4300 hc       333 PP       0.063200
   2998 C2         41.1200   30.0700   55.0000 c3       334 PP      -0.006100
   2999 C1         40.9000   28.4700   55.0400 c3       334 PP       0.076800
   3000 CB         40.0700   27.9400   53.7700 c3       334 PP      -0.265900
   3001 H21        40.9200   30.4500   53.9900 hc       334 PP       0.001900
   3002 H22        42.1300   30.3900   55.2800 hc       334 PP       0.001900
   3003 H1         40.3700   28.2200   55.9700 hc       334 PP       0.001800
   3004 HB1        40.4500   28.5000   52.9000 hc       334 PP       0.063200
   3005 HB2        40.0900   26.8800   53.5100 hc       334 PP       0.063200
   3006 HB3        39.0500   28.3300   53.8900 hc       334 PP       0.063200
   3007 C2         42.2300   27.6700   55.0400 c3       335 PP      -0.006100
   3008 C1         43.2200   27.9400   56.2500 c3       335 PP       0.076800
   3009 CB         42.5800   27.3200   57.5000 c3       335 PP      -0.265900
   3010 H21        41.9600   26.6100   54.9800 hc       335 PP       0.001900
   3011 H22        42.6700   27.9800   54.0900 hc       335 PP       0.001900
   3012 H1         43.1800   29.0300   56.3500 hc       335 PP       0.001800
   3013 HB1        42.3800   26.2600   57.3100 hc       335 PP       0.063200
   3014 HB2        43.3500   27.3800   58.2700 hc       335 PP       0.063200
   3015 HB3        41.6200   27.7700   57.7800 hc       335 PP       0.063200
   3016 C2         44.7000   27.5000   55.9700 c3       336 PP      -0.006100
   3017 C1         45.8200   28.0800   56.9500 c3       336 PP       0.076800
   3018 CB         47.2000   27.6700   56.3600 c3       336 PP      -0.265900
   3019 H21        44.7600   26.4000   55.9800 hc       336 PP       0.001900
   3020 H22        44.8100   27.7300   54.9100 hc       336 PP       0.001900
   3021 H1         45.7200   27.6500   57.9500 hc       336 PP       0.001800
   3022 HB1        48.0700   28.1100   56.8600 hc       336 PP       0.063200
   3023 HB2        47.1900   26.5800   56.4900 hc       336 PP       0.063200
   3024 HB3        47.2500   27.8700   55.2800 hc       336 PP       0.063200
   3025 C2         45.8000   29.5100   57.2300 c3       337 PP      -0.006100
   3026 C1         46.6200   29.8600   58.5200 c3       337 PP       0.076800
   3027 CB         47.5800   30.9600   58.0300 c3       337 PP      -0.265900
   3028 H21        46.0500   30.0800   56.3200 hc       337 PP       0.001900
   3029 H22        44.7700   29.8600   57.3900 hc       337 PP       0.001900
   3030 H1         47.2100   28.9900   58.8100 hc       337 PP       0.001800
   3031 HB1        46.9300   31.7900   57.7300 hc       337 PP       0.063200
   3032 HB2        48.4200   31.1700   58.7100 hc       337 PP       0.063200
   3033 HB3        48.0000   30.5200   57.1200 hc       337 PP       0.063200
   3034 C2         45.7700   30.3600   59.6300 c3       338 PP      -0.006100
   3035 C1         44.8400   29.3000   60.3100 c3       338 PP       0.076800
   3036 CB         45.6500   28.1300   61.0400 c3       338 PP      -0.265900
   3037 H21        46.4000   30.7400   60.4400 hc       338 PP       0.001900
   3038 H22        45.2100   31.2500   59.2900 hc       338 PP       0.001900
   3039 H1         44.1900   28.9700   59.4900 hc       338 PP       0.001800
   3040 HB1        46.4600   27.6700   60.4600 hc       338 PP       0.063200
   3041 HB2        46.1800   28.4800   61.9300 hc       338 PP       0.063200
   3042 HB3        44.9200   27.3700   61.3500 hc       338 PP       0.063200
   3043 C2         43.9100   29.8900   61.3600 c3       339 PP      -0.006100
   3044 C1         42.9900   31.0600   60.9000 c3       339 PP       0.076800
   3045 CB         42.2600   30.7600   59.5000 c3       339 PP      -0.265900
   3046 H21        43.3200   29.0400   61.7100 hc       339 PP       0.001900
   3047 H22        44.5300   30.2900   62.1700 hc       339 PP       0.001900
   3048 H1         43.6600   31.9100   60.7300 hc       339 PP       0.001800
   3049 HB1        43.0100   30.5000   58.7400 hc       339 PP       0.063200
   3050 HB2        41.6100   29.8800   59.5200 hc       339 PP       0.063200
   3051 HB3        41.7600   31.6800   59.1900 hc       339 PP       0.063200
   3052 C2         41.9900   31.4300   61.9800 c3       340 PP      -0.006100
   3053 C1         41.5500   32.9600   62.0100 c3       340 PP       0.076800
   3054 CB         40.3900   32.9700   63.0300 c3       340 PP      -0.265900
   3055 H21        41.0900   30.8100   61.9000 hc       340 PP       0.001900
   3056 H22        42.5200   31.2400   62.9200 hc       340 PP       0.001900
   3057 H1         41.1100   33.1700   61.0200 hc       340 PP       0.001800
   3058 HB1        39.5700   32.3900   62.6100 hc       340 PP       0.063200
   3059 HB2        40.7400   32.6600   64.0300 hc       340 PP       0.063200
   3060 HB3        39.9500   33.9700   63.1000 hc       340 PP       0.063200
   3061 C2         42.6600   33.9700   62.4200 c3       341 PP      -0.006100
   3062 C1         43.1700   34.9100   61.3600 c3       341 PP       0.076800
   3063 CB         42.1000   35.8500   60.8200 c3       341 PP      -0.265900
   3064 H21        42.2800   34.5900   63.2500 hc       341 PP       0.001900
   3065 H22        43.4400   33.3700   62.9100 hc       341 PP       0.001900
   3066 H1         43.5100   34.3000   60.5200 hc       341 PP       0.001800
   3067 HB1        41.5500   36.2900   61.6600 hc       341 PP       0.063200
   3068 HB2        42.5900   36.6300   60.2200 hc       341 PP       0.063200
   3069 HB3        41.3700   35.3800   60.1400 hc       341 PP       0.063200
   3070 C2         44.4900   35.6200   61.8600 c3       342 PP      -0.006100
   3071 C1         45.3400   36.4400   60.8200 c3       342 PP       0.076800
   3072 CB         46.0500   37.5700   61.5800 c3       342 PP      -0.265900
   3073 H21        44.2200   36.2200   62.7400 hc       342 PP       0.001900
   3074 H22        45.1900   34.8700   62.2400 hc       342 PP       0.001900
   3075 H1         44.7400   36.8600   60.0000 hc       342 PP       0.001800
   3076 HB1        45.4100   38.0600   62.3300 hc       342 PP       0.063200
   3077 HB2        46.7800   37.0500   62.2200 hc       342 PP       0.063200
   3078 HB3        46.5800   38.2700   60.9200 hc       342 PP       0.063200
   3079 C2         46.3200   35.5700   59.9400 c3       343 PP      -0.006100
   3080 C1         47.0100   36.3800   58.8100 c3       343 PP       0.076800
   3081 CB         48.3600   35.8400   58.4300 c3       343 PP      -0.265900
   3082 H21        47.1000   35.1600   60.6000 hc       343 PP       0.001900
   3083 H22        45.8200   34.6800   59.5500 hc       343 PP       0.001900
   3084 H1         47.1000   37.3900   59.2200 hc       343 PP       0.001800
   3085 HB1        48.7300   36.3800   57.5600 hc       343 PP       0.063200
   3086 HB2        49.0700   36.0400   59.2400 hc       343 PP       0.063200
   3087 HB3        48.3400   34.7700   58.2000 hc       343 PP       0.063200
   3088 C2         46.1500   36.4700   57.4600 c3       344 PP      -0.006100
   3089 C1         46.0300   37.9200   56.9300 c3       344 PP       0.076800
   3090 CB         47.3700   38.4000   56.4600 c3       344 PP      -0.265900
   3091 H21        46.5500   35.8200   56.6800 hc       344 PP       0.001900
   3092 H22        45.0900   36.2800   57.6700 hc       344 PP       0.001900
   3093 H1         45.6000   38.6100   57.6700 hc       344 PP       0.001800
   3094 HB1        48.1100   38.4100   57.2700 hc       344 PP       0.063200
   3095 HB2        47.5800   37.6400   55.7000 hc       344 PP       0.063200
   3096 HB3        47.4200   39.3700   55.9500 hc       344 PP       0.063200
   3097 C2         44.9600   38.0000   55.7600 c3       345 PP      -0.006100
   3098 C1         44.4100   39.4700   55.5000 c3       345 PP       0.076800
   3099 CB         43.6000   39.5500   54.1900 c3       345 PP      -0.265900
   3100 H21        45.3800   37.5400   54.8600 hc       345 PP       0.001900
   3101 H22        44.0800   37.3900   55.9600 hc       345 PP       0.001900
   3102 H1         45.2200   40.2000   55.5000 hc       345 PP       0.001800
   3103 HB1        44.2800   39.3900   53.3500 hc       345 PP       0.063200
   3104 HB2        42.8300   38.7800   54.0400 hc       345 PP       0.063200
   3105 HB3        43.1200   40.5300   54.0500 hc       345 PP       0.063200
   3106 C2         43.5400   40.0100   56.7100 c3       346 PP      -0.006100
   3107 C1         43.9400   41.4100   57.3500 c3       346 PP       0.076800
   3108 CB         43.9100   42.5400   56.2800 c3       346 PP      -0.265900
   3109 H21        42.5100   40.0400   56.3500 hc       346 PP       0.001900
   3110 H22        43.5200   39.2400   57.4900 hc       346 PP       0.001900
   3111 H1         44.9600   41.4000   57.7600 hc       346 PP       0.001800
   3112 HB1        44.6100   42.2400   55.4900 hc       346 PP       0.063200
   3113 HB2        42.9100   42.7700   55.8900 hc       346 PP       0.063200
   3114 HB3        44.3500   43.4700   56.6400 hc       346 PP       0.063200
   3115 C2         43.0000   41.8800   58.5100 c3       347 PP      -0.006100
   3116 C1         43.4600   41.5200   60.0000 c3       347 PP       0.076800
   3117 CB         43.6900   40.0400   60.1800 c3       347 PP      -0.265900
   3118 H21        42.8300   42.9700   58.4900 hc       347 PP       0.001900
   3119 H22        42.0500   41.4100   58.2700 hc       347 PP       0.001900
   3120 H1         42.6000   41.8000   60.6100 hc       347 PP       0.001800
   3121 HB1        44.5600   39.6800   59.6000 hc       347 PP       0.063200
   3122 HB2        43.8300   39.6600   61.2000 hc       347 PP       0.063200
   3123 HB3        42.8200   39.5300   59.7600 hc       347 PP       0.063200
   3124 C2         44.6800   42.3300   60.5000 c3       348 PP      -0.006100
   3125 C1         44.5700   43.8800   60.5700 c3       348 PP       0.076800
   3126 CB         43.2800   44.2800   61.2500 c3       348 PP      -0.265900
   3127 H21        44.8600   42.0600   61.5500 hc       348 PP       0.001900
   3128 H22        45.5400   41.9800   59.9100 hc       348 PP       0.001900
   3129 H1         44.5400   44.2400   59.5300 hc       348 PP       0.001800
   3130 HB1        43.2300   45.2200   61.8200 hc       348 PP       0.063200
   3131 HB2        42.4900   44.2800   60.5000 hc       348 PP       0.063200
   3132 HB3        43.0400   43.4500   61.9300 hc       348 PP       0.063200
   3133 C2         45.7500   44.5300   61.3400 c3       349 PP      -0.006100
   3134 C1         47.2100   44.1400   60.9900 c3       349 PP       0.076800
   3135 CB         48.1900   45.4400   61.0200 c3       349 PP      -0.265900
   3136 H21        45.7000   45.6300   61.3400 hc       349 PP       0.001900
   3137 H22        45.5200   44.3600   62.3900 hc       349 PP       0.001900
   3138 H1         47.0400   43.7700   59.9600 hc       349 PP       0.001800
   3139 HB1        47.9500   46.2000   60.2600 hc       349 PP       0.063200
   3140 HB2        48.1000   45.9500   61.9900 hc       349 PP       0.063200
   3141 HB3        49.2600   45.2500   60.8500 hc       349 PP       0.063200
   3142 C2         47.8600   42.8100   61.7200 c3       350 PP      -0.006100
   3143 C1         49.2900   42.3400   61.1200 c3       350 PP       0.076800
   3144 CB         50.5600   42.7300   61.8500 c3       350 PP      -0.265900
   3145 H21        48.0800   42.9300   62.7900 hc       350 PP       0.001900
   3146 H22        47.1300   42.0000   61.7200 hc       350 PP       0.001900
   3147 H1         49.3200   42.8500   60.1500 hc       350 PP       0.001800
   3148 HB1        50.6100   43.8300   61.9000 hc       350 PP       0.063200
   3149 HB2        50.6300   42.4400   62.9000 hc       350 PP       0.063200
   3150 HB3        51.4700   42.4800   61.2900 hc       350 PP       0.063200
   3151 C2         49.2700   40.8200   60.6900 c3       351 PP      -0.006100
   3152 C1         48.9000   39.6700   61.6800 c3       351 PP       0.076800
   3153 CB         49.2400   38.2600   61.0100 c3       351 PP      -0.265900
   3154 H21        48.6700   40.6200   59.7900 hc       351 PP       0.001900
   3155 H22        50.2300   40.5700   60.2300 hc       351 PP       0.001900
   3156 H1         47.8100   39.6900   61.7800 hc       351 PP       0.001800
   3157 HB1        48.6200   38.3700   60.1200 hc       351 PP       0.063200
   3158 HB2        50.3200   38.1900   60.8000 hc       351 PP       0.063200
   3159 HB3        48.9100   37.4100   61.6200 hc       351 PP       0.063200
   3160 C2         49.6100   39.9100   63.0400 c3       352 PP      -0.006100
   3161 C1         49.4600   38.9200   64.2700 c3       352 PP       0.076800
   3162 CB         50.4700   39.4200   65.3500 c3       352 PP      -0.265900
   3163 H21        50.7000   39.9400   62.9100 hc       352 PP       0.001900
   3164 H22        49.2400   40.8700   63.4100 hc       352 PP       0.001900
   3165 H1         49.7600   37.9300   63.9100 hc       352 PP       0.001800
   3166 HB1        50.1800   40.4200   65.7000 hc       352 PP       0.063200
   3167 HB2        50.3800   38.7400   66.2000 hc       352 PP       0.063200
   3168 HB3        51.5100   39.5500   65.0100 hc       352 PP       0.063200
   3169 C2         48.0100   38.8200   64.7900 c3       353 PP      -0.006100
   3170 C1         47.5700   37.4400   65.4000 c3       353 PP       0.076800
   3171 CB         48.3900   37.0900   66.6100 c3       353 PP      -0.265900
   3172 H21        47.9900   39.6600   65.5100 hc       353 PP       0.001900
   3173 H22        47.2900   39.1200   64.0200 hc       353 PP       0.001900
   3174 H1         47.7600   36.7200   64.5900 hc       353 PP       0.001800
   3175 HB1        49.3900   36.7800   66.2800 hc       353 PP       0.063200
   3176 HB2        48.4100   37.8600   67.3900 hc       353 PP       0.063200
   3177 HB3        48.0100   36.1300   66.9900 hc       353 PP       0.063200
   3178 C2         45.9500   37.5300   65.6200 c3       354 PP      -0.006100
   3179 C1         45.3000   36.4300   66.5000 c3       354 PP       0.076800
   3180 CB         43.8600   36.8800   67.0000 c3       354 PP      -0.265900
   3181 H21        45.6900   38.4700   66.1200 hc       354 PP       0.001900
   3182 H22        45.4300   37.5000   64.6600 hc       354 PP       0.001900
   3183 H1         45.8600   36.3100   67.4300 hc       354 PP       0.001800
   3184 HB1        43.9500   37.8500   67.4900 hc       354 PP       0.063200
   3185 HB2        43.1100   36.7600   66.2100 hc       354 PP       0.063200
   3186 HB3        43.4600   36.1600   67.7300 hc       354 PP       0.063200
   3187 C2         45.3400   34.9800   65.8200 c3       355 PP      -0.006100
   3188 C1         44.7500   33.7400   66.6400 c3       355 PP       0.076800
   3189 CB         43.2400   33.4100   66.3800 c3       355 PP      -0.265900
   3190 H21        44.8900   35.1600   64.8400 hc       355 PP       0.001900
   3191 H22        46.4200   34.8400   65.7200 hc       355 PP       0.001900
   3192 H1         44.8400   34.0500   67.6900 hc       355 PP       0.001800
   3193 HB1        43.0900   33.3100   65.3000 hc       355 PP       0.063200
   3194 HB2        42.8600   32.6500   67.0700 hc       355 PP       0.063200
   3195 HB3        42.6000   34.2700   66.6000 hc       355 PP       0.063200
   3196 C2         45.6100   32.4200   66.4700 c3       356 PP      -0.006100
   3197 C1         45.5500   31.6600   65.0900 c3       356 PP       0.076800
   3198 CB         46.2300   32.4200   63.9400 c3       356 PP      -0.265900
   3199 H21        46.6500   32.7200   66.6800 hc       356 PP       0.001900
   3200 H22        45.3600   31.7500   67.3100 hc       356 PP       0.001900
   3201 H1         44.5000   31.4100   64.8900 hc       356 PP       0.001800
   3202 HB1        45.6500   33.3000   63.6200 hc       356 PP       0.063200
   3203 HB2        47.2800   32.6800   64.1200 hc       356 PP       0.063200
   3204 HB3        46.3600   31.8100   63.0400 hc       356 PP       0.063200
   3205 C2         46.3400   30.3500   65.2700 c3       357 PP      -0.006100
   3206 C1         45.6000   28.9400   65.1800 c3       357 PP       0.076800
   3207 CB         46.5800   27.7200   65.3100 c3       357 PP      -0.265900
   3208 H21        47.1400   30.3600   64.5200 hc       357 PP       0.001900
   3209 H22        47.0100   30.2900   66.1300 hc       357 PP       0.001900
   3210 H1         45.3100   28.9500   64.1200 hc       357 PP       0.001800
   3211 HB1        46.0200   26.7900   65.1800 hc       357 PP       0.063200
   3212 HB2        47.3400   27.6900   64.5200 hc       357 PP       0.063200
   3213 HB3        47.0500   27.7500   66.3000 hc       357 PP       0.063200
   3214 C2         44.3900   28.8100   66.0900 c3       358 PP      -0.006100
   3215 C1         43.0900   28.8300   65.3200 c3       358 PP       0.076800
   3216 CB         42.7700   27.5100   64.7400 c3       358 PP      -0.265900
   3217 H21        44.4200   27.9000   66.6900 hc       358 PP       0.001900
   3218 H22        44.3600   29.5900   66.8500 hc       358 PP       0.001900
   3219 H1         43.1500   29.5500   64.5000 hc       358 PP       0.001800
   3220 HB1        42.7000   26.7900   65.5700 hc       358 PP       0.063200
   3221 HB2        41.8900   27.4800   64.0900 hc       358 PP       0.063200
   3222 HB3        43.6000   27.2200   64.0800 hc       358 PP       0.063200
   3223 C2         41.9500   29.1600   66.3500 c3       359 PP      -0.006100
   3224 C1         40.6700   29.6000   65.6900 c3       359 PP       0.076800
   3225 CB         39.6700   28.3900   65.7600 c3       359 PP      -0.265900
   3226 H21        41.8500   28.4400   67.1700 hc       359 PP       0.001900
   3227 H22        42.3800   30.0300   66.8700 hc       359 PP       0.001900
   3228 H1         40.8800   29.8800   64.6500 hc       359 PP       0.001800
   3229 HB1        39.9400   27.5500   65.1100 hc       359 PP       0.063200
   3230 HB2        39.7200   27.9400   66.7600 hc       359 PP       0.063200
   3231 HB3        38.6100   28.5700   65.5900 hc       359 PP       0.063200
   3232 C2         39.9500   30.8200   66.3300 c3       360 PP      -0.006100
   3233 C1         38.6600   31.2700   65.5400 c3       360 PP       0.076800
   3234 CB         37.7800   32.3800   66.1200 c3       360 PP      -0.265900
   3235 H21        40.6200   31.6700   66.5000 hc       360 PP       0.001900
   3236 H22        39.7600   30.5500   67.3800 hc       360 PP       0.001900
   3237 H1         38.0000   30.4800   65.1800 hc       360 PP       0.001800
   3238 HB1        37.5800   32.0700   67.1500 hc       360 PP       0.063200
   3239 HB2        38.2200   33.3900   66.1700 hc       360 PP       0.063200
   3240 HB3        36.9000   32.6300   65.5100 hc       360 PP       0.063200
   3241 C2         30.2400   61.1600   64.4100 c3       361 PP      -0.006100
   3242 C1         29.8500   61.0900   65.9200 c3       361 PP       0.076800
   3243 CB         29.1300   62.4000   66.3100 c3       361 PP      -0.265900
   3244 H21        30.6200   62.1700   64.2100 hc       361 PP       0.001900
   3245 H22        30.9500   60.3800   64.0900 hc       361 PP       0.001900
   3246 H1         30.7300   61.0100   66.5800 hc       361 PP       0.001800
   3247 HB1        29.7400   63.3000   66.4600 hc       361 PP       0.063200
   3248 HB2        28.4000   62.6700   65.5400 hc       361 PP       0.063200
   3249 HB3        28.6000   62.2200   67.2500 hc       361 PP       0.063200
   3250 C2         28.9600   59.9100   66.2900 c3       362 PP      -0.006100
   3251 C1         29.4700   58.5300   65.9500 c3       362 PP       0.076800
   3252 CB         30.7000   58.1300   66.7200 c3       362 PP      -0.265900
   3253 H21        28.7700   60.0400   67.3600 hc       362 PP       0.001900
   3254 H22        28.0100   60.1300   65.7800 hc       362 PP       0.001900
   3255 H1         29.7900   58.5000   64.9000 hc       362 PP       0.001800
   3256 HB1        31.0500   57.2000   66.2400 hc       362 PP       0.063200
   3257 HB2        31.4500   58.9400   66.6600 hc       362 PP       0.063200
   3258 HB3        30.6300   57.9900   67.8000 hc       362 PP       0.063200
   3259 C2         28.4700   57.4200   66.2700 c3       363 PP      -0.006100
   3260 C1         27.0200   57.5200   65.5800 c3       363 PP       0.076800
   3261 CB         27.1800   57.4000   64.0600 c3       363 PP      -0.265900
   3262 H21        28.8900   56.4200   66.0900 hc       363 PP       0.001900
   3263 H22        28.3300   57.5000   67.3500 hc       363 PP       0.001900
   3264 H1         26.6000   58.5200   65.7500 hc       363 PP       0.001800
   3265 HB1        26.2000   57.4200   63.5700 hc       363 PP       0.063200
   3266 HB2        27.9300   58.1300   63.7200 hc       363 PP       0.063200
   3267 HB3        27.6300   56.4200   63.8900 hc       363 PP       0.063200
   3268 C2         26.0300   56.4200   66.1000 c3       364 PP      -0.006100
   3269 C1         24.5500   56.3900   65.6900 c3       364 PP       0.076800
   3270 CB         23.7700   55.1200   66.2200 c3       364 PP      -0.265900
   3271 H21        26.4700   55.4500   65.8300 hc       364 PP       0.001900
   3272 H22        26.1800   56.4500   67.1800 hc       364 PP       0.001900
   3273 H1         24.5100   56.3200   64.6000 hc       364 PP       0.001800
   3274 HB1        23.8300   55.0600   67.3200 hc       364 PP       0.063200
   3275 HB2        22.7200   55.1000   65.9100 hc       364 PP       0.063200
   3276 HB3        24.2100   54.2400   65.7400 hc       364 PP       0.063200
   3277 C2         23.8600   57.7400   66.2100 c3       365 PP      -0.006100
   3278 C1         22.2900   57.9700   65.9900 c3       365 PP       0.076800
   3279 CB         22.0300   59.3700   66.6400 c3       365 PP      -0.265900
   3280 H21        24.0500   57.7500   67.3000 hc       365 PP       0.001900
   3281 H22        24.3200   58.6600   65.8200 hc       365 PP       0.001900
   3282 H1         21.7900   57.1100   66.4600 hc       365 PP       0.001800
   3283 HB1        22.0200   60.1500   65.8600 hc       365 PP       0.063200
   3284 HB2        21.0300   59.4300   67.0700 hc       365 PP       0.063200
   3285 HB3        22.8000   59.7700   67.3100 hc       365 PP       0.063200
   3286 C2         21.9600   57.8700   64.4700 c3       366 PP      -0.006100
   3287 C1         20.5700   58.2300   63.9500 c3       366 PP       0.076800
   3288 CB         20.6700   58.1500   62.3800 c3       366 PP      -0.265900
   3289 H21        22.7200   58.4100   63.9000 hc       366 PP       0.001900
   3290 H22        22.1300   56.8000   64.2700 hc       366 PP       0.001900
   3291 H1         20.3400   59.2500   64.2600 hc       366 PP       0.001800
   3292 HB1        20.8700   57.1000   62.1200 hc       366 PP       0.063200
   3293 HB2        19.6700   58.2900   61.9500 hc       366 PP       0.063200
   3294 HB3        21.3600   58.8800   61.9400 hc       366 PP       0.063200
   3295 C2         19.3600   57.2600   64.4000 c3       367 PP      -0.006100
   3296 C1         18.7100   57.5500   65.8200 c3       367 PP       0.076800
   3297 CB         18.1600   59.0300   65.8200 c3       367 PP      -0.265900
   3298 H21        18.5400   57.3500   63.6900 hc       367 PP       0.001900
   3299 H22        19.7300   56.2300   64.3400 hc       367 PP       0.001900
   3300 H1         19.4300   57.3900   66.6300 hc       367 PP       0.001800
   3301 HB1        18.8700   59.8600   65.7600 hc       367 PP       0.063200
   3302 HB2        17.3100   59.1500   65.1300 hc       367 PP       0.063200
   3303 HB3        17.5100   59.0500   66.7100 hc       367 PP       0.063200
   3304 C2         17.4400   56.6600   66.0800 c3       368 PP      -0.006100
   3305 C1         17.6400   55.1100   65.9900 c3       368 PP       0.076800
   3306 CB         18.8900   54.5300   66.8300 c3       368 PP      -0.265900
   3307 H21        16.9200   56.9500   67.0000 hc       368 PP       0.001900
   3308 H22        16.7200   56.9500   65.3000 hc       368 PP       0.001900
   3309 H1         17.9200   54.9000   64.9500 hc       368 PP       0.001800
   3310 HB1        19.0600   55.0000   67.8000 hc       368 PP       0.063200
   3311 HB2        18.7600   53.4500   66.9400 hc       368 PP       0.063200
   3312 HB3        19.7800   54.7800   66.2400 hc       368 PP       0.063200
   3313 C2         16.2500   54.4500   66.4300 c3       369 PP      -0.006100
   3314 C1         15.9100   53.0600   65.7400 c3       369 PP       0.076800
   3315 CB         14.7300   52.3800   66.5000 c3       369 PP      -0.265900
   3316 H21        16.2200   54.3600   67.5200 hc       369 PP       0.001900
   3317 H22        15.4500   55.1500   66.1600 hc       369 PP       0.001900
   3318 H1         16.7500   52.3600   65.8800 hc       369 PP       0.001800
   3319 HB1        14.9300   52.3600   67.5800 hc       369 PP       0.063200
   3320 HB2        13.7400   52.8300   66.4300 hc       369 PP       0.063200
   3321 HB3        14.6400   51.3200   66.2200 hc       369 PP       0.063200
   3322 C2         15.6200   53.1000   64.2300 c3       370 PP      -0.006100
   3323 C1         15.3400   51.7500   63.5200 c3       370 PP       0.076800
   3324 CB         15.2200   52.0100   62.0100 c3       370 PP      -0.265900
   3325 H21        14.9100   53.8700   63.9000 hc       370 PP       0.001900
   3326 H22        16.5100   53.5300   63.7500 hc       370 PP       0.001900
   3327 H1         14.3500   51.4100   63.8500 hc       370 PP       0.001800
   3328 HB1        14.5400   52.8100   61.7100 hc       370 PP       0.063200
   3329 HB2        16.2300   52.2800   61.6600 hc       370 PP       0.063200
   3330 HB3        14.9600   51.1600   61.3600 hc       370 PP       0.063200
   3331 C2         16.5000   50.7000   63.8100 c3       371 PP      -0.006100
   3332 C1         16.3300   49.2700   63.1600 c3       371 PP       0.076800
   3333 CB         17.6300   48.4100   63.2400 c3       371 PP      -0.265900
   3334 H21        17.4500   51.1000   63.4400 hc       371 PP       0.001900
   3335 H22        16.6400   50.5400   64.8900 hc       371 PP       0.001900
   3336 H1         16.1800   49.3400   62.0700 hc       371 PP       0.001800
   3337 HB1        17.5200   47.5800   63.9500 hc       371 PP       0.063200
   3338 HB2        17.9300   48.0200   62.2500 hc       371 PP       0.063200
   3339 HB3        18.4600   49.0200   63.6200 hc       371 PP       0.063200
   3340 C2         15.1000   48.5800   63.7900 c3       372 PP      -0.006100
   3341 C1         14.7900   47.1300   63.1900 c3       372 PP       0.076800
   3342 CB         14.3800   46.1900   64.3800 c3       372 PP      -0.265900
   3343 H21        15.5000   48.5800   64.8100 hc       372 PP       0.001900
   3344 H22        14.2100   49.2200   63.7900 hc       372 PP       0.001900
   3345 H1         15.6900   46.6700   62.7500 hc       372 PP       0.001800
   3346 HB1        13.3700   46.5500   64.6300 hc       372 PP       0.063200
   3347 HB2        14.2500   45.1500   64.0400 hc       372 PP       0.063200
   3348 HB3        15.0000   46.3300   65.2700 hc       372 PP       0.063200
   3349 C2         13.6600   47.2400   62.0800 c3       373 PP      -0.006100
   3350 C1         14.0200   46.4700   60.7400 c3       373 PP       0.076800
   3351 CB         13.1200   45.2200   60.6500 c3       373 PP      -0.265900
   3352 H21        12.6300   47.0900   62.4400 hc       373 PP       0.001900
   3353 H22        13.5900   48.3000   61.7800 hc       373 PP       0.001900
   3354 H1         15.0600   46.1300   60.7500 hc       373 PP       0.001800
   3355 HB1        13.0800   44.6600   61.5900 hc       373 PP       0.063200
   3356 HB2        12.0700   45.4600   60.4100 hc       373 PP       0.063200
   3357 HB3        13.5900   44.5900   59.8900 hc       373 PP       0.063200
   3358 C2         13.9400   47.2600   59.4400 c3       374 PP      -0.006100
   3359 C1         15.0400   48.4300   59.2800 c3       374 PP       0.076800
   3360 CB         16.4000   47.8900   58.7400 c3       374 PP      -0.265900
   3361 H21        13.9600   46.6100   58.5600 hc       374 PP       0.001900
   3362 H22        12.9300   47.6900   59.3500 hc       374 PP       0.001900
   3363 H1         15.1700   48.8800   60.2800 hc       374 PP       0.001800
   3364 HB1        16.9900   48.6400   58.2100 hc       374 PP       0.063200
   3365 HB2        17.0000   47.5300   59.5800 hc       374 PP       0.063200
   3366 HB3        16.2100   47.1400   57.9600 hc       374 PP       0.063200
   3367 C2         14.6200   49.6900   58.6600 c3       375 PP      -0.006100
   3368 C1         13.8100   49.6200   57.3400 c3       375 PP       0.076800
   3369 CB         12.8900   50.7900   57.0700 c3       375 PP      -0.265900
   3370 H21        14.0800   50.2200   59.4500 hc       375 PP       0.001900
   3371 H22        15.4700   50.3600   58.4900 hc       375 PP       0.001900
   3372 H1         13.1800   48.7200   57.3300 hc       375 PP       0.001800
   3373 HB1        13.4400   51.6900   56.7500 hc       375 PP       0.063200
   3374 HB2        12.2200   50.5100   56.2400 hc       375 PP       0.063200
   3375 HB3        12.3100   50.8900   58.0000 hc       375 PP       0.063200
   3376 C2         14.7700   49.4500   56.0700 c3       376 PP      -0.006100
   3377 C1         14.1900   48.6900   54.8600 c3       376 PP       0.076800
   3378 CB         13.8500   49.5200   53.6000 c3       376 PP      -0.265900
   3379 H21        14.9800   50.4700   55.7300 hc       376 PP       0.001900
   3380 H22        15.7700   49.1300   56.3800 hc       376 PP       0.001900
   3381 H1         13.1800   48.4100   55.2000 hc       376 PP       0.001800
   3382 HB1        13.3000   48.8800   52.8900 hc       376 PP       0.063200
   3383 HB2        13.2400   50.3900   53.8600 hc       376 PP       0.063200
   3384 HB3        14.8200   49.8300   53.1800 hc       376 PP       0.063200
   3385 C2         15.0400   47.5000   54.3900 c3       377 PP      -0.006100
   3386 C1         14.2600   46.1500   54.2300 c3       377 PP       0.076800
   3387 CB         15.1300   45.3200   53.2600 c3       377 PP      -0.265900
   3388 H21        15.6900   47.6400   53.5100 hc       377 PP       0.001900
   3389 H22        15.8200   47.3900   55.1500 hc       377 PP       0.001900
   3390 H1         13.2900   46.4400   53.8000 hc       377 PP       0.001800
   3391 HB1        15.1300   45.6500   52.2200 hc       377 PP       0.063200
   3392 HB2        16.2000   45.2200   53.5100 hc       377 PP       0.063200
   3393 HB3        14.7100   44.3000   53.2600 hc       377 PP       0.063200
   3394 C2         13.9800   45.6000   55.6900 c3       378 PP      -0.006100
   3395 C1         13.1900   44.2400   55.6900 c3       378 PP       0.076800
   3396 CB         12.8900   43.8200   57.1300 c3       378 PP      -0.265900
   3397 H21        14.9000   45.5200   56.2800 hc       378 PP       0.001900
   3398 H22        13.2800   46.2600   56.2300 hc       378 PP       0.001900
   3399 H1         13.8100   43.4700   55.2200 hc       378 PP       0.001800
   3400 HB1        12.5700   42.7800   57.2900 hc       378 PP       0.063200
   3401 HB2        13.8000   43.9400   57.7300 hc       378 PP       0.063200
   3402 HB3        12.1000   44.4900   57.4800 hc       378 PP       0.063200
   3403 C2         11.8600   44.2600   54.8600 c3       379 PP      -0.006100
   3404 C1         10.9700   42.9700   54.8300 c3       379 PP       0.076800
   3405 CB          9.6300   43.1700   53.9800 c3       379 PP      -0.265900
   3406 H21        11.2500   45.1100   55.1900 hc       379 PP       0.001900
   3407 H22        12.1500   44.5500   53.8400 hc       379 PP       0.001900
   3408 H1         10.7700   42.6800   55.8600 hc       379 PP       0.001800
   3409 HB1         9.7400   42.9100   52.9200 hc       379 PP       0.063200
   3410 HB2         8.8500   42.5200   54.3600 hc       379 PP       0.063200
   3411 HB3         9.1800   44.1700   54.0800 hc       379 PP       0.063200
   3412 C2         11.7400   41.7900   54.2400 c3       380 PP      -0.006100
   3413 C1         11.0200   40.3700   54.2600 c3       380 PP       0.076800
   3414 CB         11.7300   39.3000   53.3100 c3       380 PP      -0.265900
   3415 H21        12.0700   41.9200   53.2000 hc       380 PP       0.001900
   3416 H22        12.6100   41.6700   54.9000 hc       380 PP       0.001900
   3417 H1         10.0200   40.5200   53.8300 hc       380 PP       0.001800
   3418 HB1        12.1200   39.7300   52.3800 hc       380 PP       0.063200
   3419 HB2        12.5400   38.7200   53.7700 hc       380 PP       0.063200
   3420 HB3        10.9900   38.5100   53.1200 hc       380 PP       0.063200
   3421 C2         10.9100   39.8800   55.7600 c3       381 PP      -0.006100
   3422 C1          9.4400   40.0400   56.4400 c3       381 PP       0.076800
   3423 CB          8.3300   39.1500   55.7700 c3       381 PP      -0.265900
   3424 H21        11.2200   38.8200   55.7400 hc       381 PP       0.001900
   3425 H22        11.6800   40.3400   56.4000 hc       381 PP       0.001900
   3426 H1          9.2100   41.1000   56.2400 hc       381 PP       0.001800
   3427 HB1         8.5600   38.8900   54.7300 hc       381 PP       0.063200
   3428 HB2         8.1200   38.2500   56.3700 hc       381 PP       0.063200
   3429 HB3         7.3500   39.6400   55.6900 hc       381 PP       0.063200
   3430 C2          9.4700   39.7900   57.9400 c3       382 PP      -0.006100
   3431 C1         10.2700   41.0000   58.7500 c3       382 PP       0.076800
   3432 CB          9.3800   42.2800   58.9200 c3       382 PP      -0.265900
   3433 H21         8.4900   39.8200   58.4300 hc       382 PP       0.001900
   3434 H22         9.8500   38.7700   58.1100 hc       382 PP       0.001900
   3435 H1         11.0400   41.3700   58.0700 hc       382 PP       0.001800
   3436 HB1        10.0700   43.1300   58.8300 hc       382 PP       0.063200
   3437 HB2         8.6500   42.3000   58.1000 hc       382 PP       0.063200
   3438 HB3         8.9200   42.4000   59.9100 hc       382 PP       0.063200
   3439 C2         10.9200   40.4200   60.0300 c3       383 PP      -0.006100
   3440 C1         11.9900   41.3200   60.6600 c3       383 PP       0.076800
   3441 CB         11.2500   42.3800   61.6100 c3       383 PP      -0.265900
   3442 H21        10.0400   40.4200   60.6900 hc       383 PP       0.001900
   3443 H22        11.2900   39.4100   59.8300 hc       383 PP       0.001900
   3444 H1         12.3900   41.9300   59.8400 hc       383 PP       0.001800
   3445 HB1        10.8100   43.2600   61.1100 hc       383 PP       0.063200
   3446 HB2        10.5200   41.7800   62.1800 hc       383 PP       0.063200
   3447 HB3        11.9700   42.7800   62.3300 hc       383 PP       0.063200
   3448 C2         13.0900   40.5800   61.4200 c3       384 PP      -0.006100
   3449 C1         14.3500   40.3100   60.5700 c3       384 PP       0.076800
   3450 CB         15.3300   39.4600   61.3600 c3       384 PP      -0.265900
   3451 H21        13.4500   41.1800   62.2700 hc       384 PP       0.001900
   3452 H22        12.6900   39.6900   61.9200 hc       384 PP       0.001900
   3453 H1         14.8600   41.2700   60.4700 hc       384 PP       0.001800
   3454 HB1        15.4800   39.7200   62.4100 hc       384 PP       0.063200
   3455 HB2        15.0200   38.4200   61.1900 hc       384 PP       0.063200
   3456 HB3        16.3400   39.4800   60.9400 hc       384 PP       0.063200
   3457 C2         13.9900   39.8600   59.1000 c3       385 PP      -0.006100
   3458 C1         15.1500   39.2700   58.1900 c3       385 PP       0.076800
   3459 CB         14.4600   38.6600   56.9000 c3       385 PP      -0.265900
   3460 H21        13.2100   39.1000   59.1800 hc       385 PP       0.001900
   3461 H22        13.5200   40.7200   58.6000 hc       385 PP       0.001900
   3462 H1         15.5400   38.4400   58.7900 hc       385 PP       0.001800
   3463 HB1        13.6600   39.3200   56.5600 hc       385 PP       0.063200
   3464 HB2        15.1400   38.4200   56.0700 hc       385 PP       0.063200
   3465 HB3        13.8700   37.7800   57.1900 hc       385 PP       0.063200
   3466 C2         16.2600   40.3700   57.9200 c3       386 PP      -0.006100
   3467 C1         17.4400   40.1500   56.9300 c3       386 PP       0.076800
   3468 CB         18.0700   41.5600   56.6100 c3       386 PP      -0.265900
   3469 H21        15.6400   41.1800   57.5100 hc       386 PP       0.001900
   3470 H22        16.6400   40.7800   58.8600 hc       386 PP       0.001900
   3471 H1         17.0500   39.6900   56.0100 hc       386 PP       0.001800
   3472 HB1        19.0400   41.5200   56.1000 hc       386 PP       0.063200
   3473 HB2        17.3700   42.1200   55.9700 hc       386 PP       0.063200
   3474 HB3        18.0400   42.1100   57.5600 hc       386 PP       0.063200
   3475 C2         18.5100   39.1000   57.4200 c3       387 PP      -0.006100
   3476 C1         18.1300   37.6400   57.0000 c3       387 PP       0.076800
   3477 CB         18.0100   37.4400   55.4700 c3       387 PP      -0.265900
   3478 H21        19.5100   39.3200   57.0300 hc       387 PP       0.001900
   3479 H22        18.6100   39.1700   58.5100 hc       387 PP       0.001900
   3480 H1         17.1400   37.4300   57.4200 hc       387 PP       0.001800
   3481 HB1        18.2800   36.4300   55.1500 hc       387 PP       0.063200
   3482 HB2        17.0200   37.7000   55.0700 hc       387 PP       0.063200
   3483 HB3        18.8200   38.0300   55.0100 hc       387 PP       0.063200
   3484 C2         19.1400   36.6100   57.5800 c3       388 PP      -0.006100
   3485 C1         18.7000   36.0500   59.0100 c3       388 PP       0.076800
   3486 CB         18.5400   37.2100   60.0800 c3       388 PP      -0.265900
   3487 H21        19.2700   35.7400   56.9300 hc       388 PP       0.001900
   3488 H22        20.0800   37.1500   57.7200 hc       388 PP       0.001900
   3489 H1         19.5300   35.3900   59.2800 hc       388 PP       0.001800
   3490 HB1        19.3900   37.9000   60.0600 hc       388 PP       0.063200
   3491 HB2        17.5400   37.6400   60.0700 hc       388 PP       0.063200
   3492 HB3        18.6200   36.7200   61.0600 hc       388 PP       0.063200
   3493 C2         17.4200   35.1400   58.7700 c3       389 PP      -0.006100
   3494 C1         16.7500   34.6900   60.1500 c3       389 PP       0.076800
   3495 CB         15.3800   34.0000   59.9500 c3       389 PP      -0.265900
   3496 H21        16.6100   35.6300   58.2100 hc       389 PP       0.001900
   3497 H22        17.7600   34.2900   58.1600 hc       389 PP       0.001900
   3498 H1         16.4800   35.5700   60.7400 hc       389 PP       0.001800
   3499 HB1        14.8200   33.9800   60.8900 hc       389 PP       0.063200
   3500 HB2        14.7400   34.5000   59.2100 hc       389 PP       0.063200
   3501 HB3        15.5400   33.0100   59.5100 hc       389 PP       0.063200
   3502 C2         17.6800   33.7700   60.9400 c3       390 PP      -0.006100
   3503 C1         17.2900   33.6000   62.4700 c3       390 PP       0.076800
   3504 CB         18.5600   33.1200   63.2100 c3       390 PP      -0.265900
   3505 H21        18.6500   34.2800   60.9400 hc       390 PP       0.001900
   3506 H22        17.8500   32.8100   60.4400 hc       390 PP       0.001900
   3507 H1         17.1100   34.6100   62.8700 hc       390 PP       0.001800
   3508 HB1        19.4600   33.7400   63.0600 hc       390 PP       0.063200
   3509 HB2        18.3900   33.2600   64.2800 hc       390 PP       0.063200
   3510 HB3        18.8000   32.0500   63.1700 hc       390 PP       0.063200
   3511 C2         24.1400   33.8700   56.5700 c3       391 PP      -0.006100
   3512 C1         22.9200   34.0200   55.6100 c3       391 PP       0.076800
   3513 CB         21.5900   33.5500   56.2700 c3       391 PP      -0.265900
   3514 H21        25.0300   34.1400   55.9800 hc       391 PP       0.001900
   3515 H22        23.9400   34.5500   57.4000 hc       391 PP       0.001900
   3516 H1         23.0900   33.5700   54.6200 hc       391 PP       0.001800
   3517 HB1        21.8500   32.6500   56.8500 hc       391 PP       0.063200
   3518 HB2        21.2300   34.2700   57.0200 hc       391 PP       0.063200
   3519 HB3        20.7700   33.3300   55.5700 hc       391 PP       0.063200
   3520 C2         22.8700   35.5600   55.2900 c3       392 PP      -0.006100
   3521 C1         21.8900   36.0900   54.0900 c3       392 PP       0.076800
   3522 CB         21.6400   37.6400   54.2800 c3       392 PP      -0.265900
   3523 H21        22.5600   36.0600   56.2200 hc       392 PP       0.001900
   3524 H22        23.8200   36.0600   55.0600 hc       392 PP       0.001900
   3525 H1         20.8800   35.6700   54.1400 hc       392 PP       0.001800
   3526 HB1        22.5400   38.2400   54.1000 hc       392 PP       0.063200
   3527 HB2        20.9300   37.8700   53.4700 hc       392 PP       0.063200
   3528 HB3        21.2700   37.9600   55.2600 hc       392 PP       0.063200
   3529 C2         22.4800   35.8500   52.7200 c3       393 PP      -0.006100
   3530 C1         21.6300   34.7700   51.9700 c3       393 PP       0.076800
   3531 CB         20.3300   35.3900   51.3300 c3       393 PP      -0.265900
   3532 H21        22.5300   36.6900   52.0200 hc       393 PP       0.001900
   3533 H22        23.4800   35.4100   52.8000 hc       393 PP       0.001900
   3534 H1         21.3200   33.8600   52.4900 hc       393 PP       0.001800
   3535 HB1        20.6400   36.2800   50.7700 hc       393 PP       0.063200
   3536 HB2        19.8300   34.7400   50.6000 hc       393 PP       0.063200
   3537 HB3        19.6000   35.7000   52.0800 hc       393 PP       0.063200
   3538 C2         22.4600   34.1400   50.8700 c3       394 PP      -0.006100
   3539 C1         23.4100   33.0800   51.2300 c3       394 PP       0.076800
   3540 CB         22.8900   31.7000   50.8600 c3       394 PP      -0.265900
   3541 H21        21.7400   33.8700   50.0900 hc       394 PP       0.001900
   3542 H22        22.9700   34.8900   50.2500 hc       394 PP       0.001900
   3543 H1         23.4900   33.0000   52.3300 hc       394 PP       0.001800
   3544 HB1        23.5400   30.8800   51.1500 hc       394 PP       0.063200
   3545 HB2        21.9800   31.4000   51.4000 hc       394 PP       0.063200
   3546 HB3        22.7800   31.6400   49.7700 hc       394 PP       0.063200
   3547 C2         24.8100   33.2600   50.6700 c3       395 PP      -0.006100
   3548 C1         25.8600   34.3300   51.3500 c3       395 PP       0.076800
   3549 CB         26.5100   33.6800   52.5800 c3       395 PP      -0.265900
   3550 H21        25.2800   32.2700   50.6200 hc       395 PP       0.001900
   3551 H22        24.6300   33.5500   49.6300 hc       395 PP       0.001900
   3552 H1         25.3000   35.2300   51.6300 hc       395 PP       0.001800
   3553 HB1        27.6000   33.5800   52.4800 hc       395 PP       0.063200
   3554 HB2        26.3300   34.3100   53.4600 hc       395 PP       0.063200
   3555 HB3        26.0800   32.6900   52.7800 hc       395 PP       0.063200
   3556 C2         26.9900   34.8400   50.3700 c3       396 PP      -0.006100
   3557 C1         28.1200   35.7500   50.9900 c3       396 PP       0.076800
   3558 CB         29.5200   35.3200   50.4900 c3       396 PP      -0.265900
   3559 H21        27.5100   33.9600   50.0000 hc       396 PP       0.001900
   3560 H22        26.5300   35.3700   49.5300 hc       396 PP       0.001900
   3561 H1         28.0600   35.6000   52.0700 hc       396 PP       0.001800
   3562 HB1        29.6300   34.2400   50.3200 hc       396 PP       0.063200
   3563 HB2        29.8000   35.8000   49.5400 hc       396 PP       0.063200
   3564 HB3        30.2400   35.4500   51.3100 hc       396 PP       0.063200
   3565 C2         27.8700   37.2500   50.5900 c3       397 PP      -0.006100
   3566 C1         26.5300   37.9300   51.1200 c3       397 PP       0.076800
   3567 CB         26.3900   37.9800   52.6200 c3       397 PP      -0.265900
   3568 H21        28.6600   38.0000   50.7400 hc       397 PP       0.001900
   3569 H22        27.7400   37.2100   49.5000 hc       397 PP       0.001900
   3570 H1         25.7300   37.3500   50.6400 hc       397 PP       0.001800
   3571 HB1        26.8400   37.0900   53.0700 hc       397 PP       0.063200
   3572 HB2        27.0000   38.8200   52.9700 hc       397 PP       0.063200
   3573 HB3        25.3600   38.0700   52.9700 hc       397 PP       0.063200
   3574 C2         26.4100   39.4200   50.4800 c3       398 PP      -0.006100
   3575 C1         25.0500   40.2000   50.9300 c3       398 PP       0.076800
   3576 CB         25.1000   41.6100   50.4500 c3       398 PP      -0.265900
   3577 H21        27.2200   40.0100   50.9200 hc       398 PP       0.001900
   3578 H22        26.4600   39.3900   49.3900 hc       398 PP       0.001900
   3579 H1         25.1000   40.2600   52.0200 hc       398 PP       0.001800
   3580 HB1        25.0700   41.6700   49.3500 hc       398 PP       0.063200
   3581 HB2        24.2900   42.2100   50.9000 hc       398 PP       0.063200
   3582 HB3        26.0200   42.1100   50.7800 hc       398 PP       0.063200
   3583 C2         23.7100   39.4300   50.4900 c3       399 PP      -0.006100
   3584 C1         22.4000   40.2100   50.5100 c3       399 PP       0.076800
   3585 CB         21.2500   39.4900   49.8100 c3       399 PP      -0.265900
   3586 H21        24.0500   39.0500   49.5200 hc       399 PP       0.001900
   3587 H22        23.5800   38.5100   51.0800 hc       399 PP       0.001900
   3588 H1         22.4800   41.1400   49.9400 hc       399 PP       0.001800
   3589 HB1        20.4700   40.2400   49.6700 hc       399 PP       0.063200
   3590 HB2        21.4900   39.0500   48.8300 hc       399 PP       0.063200
   3591 HB3        20.8500   38.7000   50.4600 hc       399 PP       0.063200
   3592 C2         22.0300   40.6200   51.9100 c3       400 PP      -0.006100
   3593 C1         20.5700   41.2800   52.0800 c3       400 PP       0.076800
   3594 CB         20.3000   41.5100   53.5800 c3       400 PP      -0.265900
   3595 H21        21.9700   39.7000   52.4900 hc       400 PP       0.001900
   3596 H22        22.7900   41.2500   52.3800 hc       400 PP       0.001900
   3597 H1         19.8700   40.4800   51.8100 hc       400 PP       0.001800
   3598 HB1        21.1200   41.2700   54.2700 hc       400 PP       0.063200
   3599 HB2        20.1100   42.5700   53.7800 hc       400 PP       0.063200
   3600 HB3        19.3800   41.0300   53.9200 hc       400 PP       0.063200
   3601 C2         20.3300   42.5800   51.2500 c3       401 PP      -0.006100
   3602 C1         18.8800   43.1900   51.3600 c3       401 PP       0.076800
   3603 CB         18.8800   44.7300   51.3400 c3       401 PP      -0.265900
   3604 H21        21.0700   43.2900   51.6400 hc       401 PP       0.001900
   3605 H22        20.5500   42.5000   50.1800 hc       401 PP       0.001900
   3606 H1         18.3800   42.8900   52.2900 hc       401 PP       0.001800
   3607 HB1        19.2900   45.0600   50.3800 hc       401 PP       0.063200
   3608 HB2        17.8700   45.1800   51.3200 hc       401 PP       0.063200
   3609 HB3        19.4100   45.0200   52.2600 hc       401 PP       0.063200
   3610 C2         17.9000   42.6700   50.2600 c3       402 PP      -0.006100
   3611 C1         16.3700   42.7400   50.6600 c3       402 PP       0.076800
   3612 CB         15.5800   43.4300   49.5000 c3       402 PP      -0.265900
   3613 H21        18.0700   43.3700   49.4300 hc       402 PP       0.001900
   3614 H22        18.1900   41.6600   49.9400 hc       402 PP       0.001900
   3615 H1         16.1900   43.4000   51.5100 hc       402 PP       0.001800
   3616 HB1        15.9600   44.4400   49.3400 hc       402 PP       0.063200
   3617 HB2        15.5400   42.8400   48.5700 hc       402 PP       0.063200
   3618 HB3        14.5100   43.4900   49.7400 hc       402 PP       0.063200
   3619 C2         15.7900   41.3600   50.8300 c3       403 PP      -0.006100
   3620 C1         16.3200   40.4900   52.0600 c3       403 PP       0.076800
   3621 CB         15.9700   41.1000   53.4200 c3       403 PP      -0.265900
   3622 H21        14.6900   41.4500   50.8000 hc       403 PP       0.001900
   3623 H22        16.0700   40.7700   49.9500 hc       403 PP       0.001900
   3624 H1         17.4100   40.5100   51.9500 hc       403 PP       0.001800
   3625 HB1        16.5200   42.0500   53.4900 hc       403 PP       0.063200
   3626 HB2        14.8900   41.2400   53.5200 hc       403 PP       0.063200
   3627 HB3        16.3000   40.4300   54.2200 hc       403 PP       0.063200
   3628 C2         15.8200   39.0100   52.0400 c3       404 PP      -0.006100
   3629 C1         16.2000   38.0800   50.8800 c3       404 PP       0.076800
   3630 CB         17.7100   37.7900   50.9700 c3       404 PP      -0.265900
   3631 H21        16.2900   38.5300   52.9100 hc       404 PP       0.001900
   3632 H22        14.7300   38.9800   52.1500 hc       404 PP       0.001900
   3633 H1         15.9100   38.6100   49.9600 hc       404 PP       0.001800
   3634 HB1        18.0100   37.4800   51.9800 hc       404 PP       0.063200
   3635 HB2        18.0300   37.0800   50.2000 hc       404 PP       0.063200
   3636 HB3        18.3100   38.6900   50.8800 hc       404 PP       0.063200
   3637 C2         15.4800   36.6900   50.8700 c3       405 PP      -0.006100
   3638 C1         13.8600   36.7500   50.8800 c3       405 PP       0.076800
   3639 CB         13.2300   37.7800   49.7500 c3       405 PP      -0.265900
   3640 H21        15.9500   36.1000   50.0700 hc       405 PP       0.001900
   3641 H22        15.8700   36.1600   51.7400 hc       405 PP       0.001900
   3642 H1         13.5500   37.0600   51.8900 hc       405 PP       0.001800
   3643 HB1        12.1400   37.7800   49.6200 hc       405 PP       0.063200
   3644 HB2        13.5400   38.8100   49.9500 hc       405 PP       0.063200
   3645 HB3        13.5500   37.3700   48.7800 hc       405 PP       0.063200
   3646 C2         13.3600   35.2600   50.7300 c3       406 PP      -0.006100
   3647 C1         11.8500   34.8900   50.7000 c3       406 PP       0.076800
   3648 CB         11.7200   33.3100   50.9600 c3       406 PP      -0.265900
   3649 H21        13.9100   34.7400   49.9400 hc       406 PP       0.001900
   3650 H22        13.7000   34.7900   51.6600 hc       406 PP       0.001900
   3651 H1         11.4300   35.1200   49.7100 hc       406 PP       0.001800
   3652 HB1        11.8000   33.0400   52.0200 hc       406 PP       0.063200
   3653 HB2        10.7400   32.9500   50.6300 hc       406 PP       0.063200
   3654 HB3        12.4000   32.7100   50.3300 hc       406 PP       0.063200
   3655 C2         11.0200   35.7300   51.6500 c3       407 PP      -0.006100
   3656 C1          9.6100   35.1700   52.0100 c3       407 PP       0.076800
   3657 CB          9.0100   36.0800   53.1700 c3       407 PP      -0.265900
   3658 H21        11.5300   35.9100   52.6100 hc       407 PP       0.001900
   3659 H22        10.9200   36.7600   51.2600 hc       407 PP       0.001900
   3660 H1          9.8700   34.2100   52.4800 hc       407 PP       0.001800
   3661 HB1         9.5600   36.0500   54.1200 hc       407 PP       0.063200
   3662 HB2         8.8400   37.1300   52.9100 hc       407 PP       0.063200
   3663 HB3         8.1200   35.5100   53.4700 hc       407 PP       0.063200
   3664 C2          8.5900   35.0100   50.8300 c3       408 PP      -0.006100
   3665 C1          7.3000   34.2200   51.1600 c3       408 PP       0.076800
   3666 CB          6.4600   34.1100   49.8600 c3       408 PP      -0.265900
   3667 H21         8.2900   35.9900   50.4600 hc       408 PP       0.001900
   3668 H22         9.0700   34.4900   49.9900 hc       408 PP       0.001900
   3669 H1          6.7200   34.8900   51.8000 hc       408 PP       0.001800
   3670 HB1         5.5000   33.6200   50.0900 hc       408 PP       0.063200
   3671 HB2         6.2600   35.1400   49.5500 hc       408 PP       0.063200
   3672 HB3         6.9500   33.6000   49.0200 hc       408 PP       0.063200
   3673 C2          7.5600   32.8300   51.7500 c3       409 PP      -0.006100
   3674 C1          7.4800   32.6300   53.3600 c3       409 PP       0.076800
   3675 CB          6.0200   32.8600   53.8500 c3       409 PP      -0.265900
   3676 H21         6.8400   32.1000   51.3600 hc       409 PP       0.001900
   3677 H22         8.5200   32.4400   51.3800 hc       409 PP       0.001900
   3678 H1          8.0900   33.3800   53.8700 hc       409 PP       0.001800
   3679 HB1         5.7100   33.8900   53.6100 hc       409 PP       0.063200
   3680 HB2         5.3200   32.1100   53.4700 hc       409 PP       0.063200
   3681 HB3         5.8600   32.8400   54.9400 hc       409 PP       0.063200
   3682 C2          8.0800   31.2400   53.7600 c3       410 PP      -0.006100
   3683 C1          9.6300   31.1900   53.7500 c3       410 PP       0.076800
   3684 CB         10.2800   32.2100   54.7700 c3       410 PP      -0.265900
   3685 H21         7.6000   31.0300   54.7200 hc       410 PP       0.001900
   3686 H22         7.8300   30.4800   53.0000 hc       410 PP       0.001900
   3687 H1         10.0100   31.6600   52.8400 hc       410 PP       0.001800
   3688 HB1        10.2100   31.8000   55.7800 hc       410 PP       0.063200
   3689 HB2        11.3400   32.3500   54.5400 hc       410 PP       0.063200
   3690 HB3         9.8500   33.2200   54.8200 hc       410 PP       0.063200
   3691 C2         10.1500   29.7200   53.7200 c3       411 PP      -0.006100
   3692 C1         11.6800   29.4000   53.8700 c3       411 PP       0.076800
   3693 CB         11.8600   27.8200   54.1300 c3       411 PP      -0.265900
   3694 H21         9.6900   29.2100   54.5800 hc       411 PP       0.001900
   3695 H22         9.8100   29.3500   52.7500 hc       411 PP       0.001900
   3696 H1         11.9600   29.8900   54.8100 hc       411 PP       0.001800
   3697 HB1        12.9100   27.7200   54.4100 hc       411 PP       0.063200
   3698 HB2        11.2500   27.4600   54.9700 hc       411 PP       0.063200
   3699 HB3        11.6100   27.2300   53.2400 hc       411 PP       0.063200
   3700 C2         12.6500   29.9300   52.8000 c3       412 PP      -0.006100
   3701 C1         13.1200   29.0100   51.6500 c3       412 PP       0.076800
   3702 CB         11.8400   28.7300   50.6300 c3       412 PP      -0.265900
   3703 H21        12.3300   30.8500   52.2900 hc       412 PP       0.001900
   3704 H22        13.4800   30.3500   53.3800 hc       412 PP       0.001900
   3705 H1         13.5300   28.1100   52.1200 hc       412 PP       0.001800
   3706 HB1        12.2000   28.1800   49.7500 hc       412 PP       0.063200
   3707 HB2        11.0800   28.0800   51.0800 hc       412 PP       0.063200
   3708 HB3        11.3600   29.6400   50.2300 hc       412 PP       0.063200
   3709 C2         14.3100   29.5900   50.8100 c3       413 PP      -0.006100
   3710 C1         15.5400   30.1500   51.6800 c3       413 PP       0.076800
   3711 CB         16.0900   28.9800   52.5700 c3       413 PP      -0.265900
   3712 H21        14.6500   28.7900   50.1400 hc       413 PP       0.001900
   3713 H22        13.9400   30.3600   50.1300 hc       413 PP       0.001900
   3714 H1         15.2200   30.9900   52.3000 hc       413 PP       0.001800
   3715 HB1        17.0800   29.2700   52.9400 hc       413 PP       0.063200
   3716 HB2        15.4700   28.8100   53.4600 hc       413 PP       0.063200
   3717 HB3        16.0200   28.0500   51.9900 hc       413 PP       0.063200
   3718 C2         16.7000   30.6300   50.6700 c3       414 PP      -0.006100
   3719 C1         17.8200   31.5500   51.2500 c3       414 PP       0.076800
   3720 CB         19.0300   31.7500   50.2800 c3       414 PP      -0.265900
   3721 H21        17.1900   29.7100   50.3300 hc       414 PP       0.001900
   3722 H22        16.2800   31.1300   49.7900 hc       414 PP       0.001900
   3723 H1         18.2300   31.0200   52.1200 hc       414 PP       0.001800
   3724 HB1        18.8300   32.0500   49.2500 hc       414 PP       0.063200
   3725 HB2        19.7900   32.4100   50.7200 hc       414 PP       0.063200
   3726 HB3        19.5500   30.8000   50.0900 hc       414 PP       0.063200
   3727 C2         17.2000   32.8400   51.8500 c3       415 PP      -0.006100
   3728 C1         17.0100   32.8400   53.3900 c3       415 PP       0.076800
   3729 CB         18.3800   32.8700   54.1100 c3       415 PP      -0.265900
   3730 H21        17.7900   33.7400   51.6500 hc       415 PP       0.001900
   3731 H22        16.2100   33.0100   51.4200 hc       415 PP       0.001900
   3732 H1         16.5700   31.9300   53.8300 hc       415 PP       0.001800
   3733 HB1        18.8900   33.7500   53.6900 hc       415 PP       0.063200
   3734 HB2        18.3500   32.9100   55.2000 hc       415 PP       0.063200
   3735 HB3        19.0600   32.0500   53.8400 hc       415 PP       0.063200
   3736 C2         16.1600   34.0300   53.9100 c3       416 PP      -0.006100
   3737 C1         15.5700   33.9100   55.3400 c3       416 PP       0.076800
   3738 CB         15.0400   35.3200   55.8300 c3       416 PP      -0.265900
   3739 H21        16.8000   34.9100   53.7800 hc       416 PP       0.001900
   3740 H22        15.3500   34.1600   53.1800 hc       416 PP       0.001900
   3741 H1         16.3800   33.6100   56.0200 hc       416 PP       0.001800
   3742 HB1        15.9000   36.0000   55.9200 hc       416 PP       0.063200
   3743 HB2        14.2800   35.7400   55.1600 hc       416 PP       0.063200
   3744 HB3        14.6100   35.2700   56.8300 hc       416 PP       0.063200
   3745 C2         14.3600   32.8600   55.4100 c3       417 PP      -0.006100
   3746 C1         14.5700   31.7900   56.5800 c3       417 PP       0.076800
   3747 CB         13.2100   31.5500   57.3400 c3       417 PP      -0.265900
   3748 H21        13.4100   33.3900   55.4700 hc       417 PP       0.001900
   3749 H22        14.2800   32.2800   54.4900 hc       417 PP       0.001900
   3750 H1         15.2400   32.2800   57.3000 hc       417 PP       0.001800
   3751 HB1        12.8700   32.4700   57.8200 hc       417 PP       0.063200
   3752 HB2        12.3800   31.2400   56.7000 hc       417 PP       0.063200
   3753 HB3        13.3300   30.8400   58.1700 hc       417 PP       0.063200
   3754 C2         15.1800   30.3900   56.1700 c3       418 PP      -0.006100
   3755 C1         15.8100   29.6500   57.3700 c3       418 PP       0.076800
   3756 CB         15.7900   28.1100   57.0300 c3       418 PP      -0.265900
   3757 H21        14.3800   29.8300   55.6700 hc       418 PP       0.001900
   3758 H22        15.9800   30.5100   55.4300 hc       418 PP       0.001900
   3759 H1         15.1300   29.8500   58.2000 hc       418 PP       0.001800
   3760 HB1        16.3000   28.0200   56.0600 hc       418 PP       0.063200
   3761 HB2        16.3100   27.5000   57.7800 hc       418 PP       0.063200
   3762 HB3        14.7400   27.8200   56.9400 hc       418 PP       0.063200
   3763 C2         17.2700   30.1000   57.8000 c3       419 PP      -0.006100
   3764 C1         18.4700   30.1400   56.8100 c3       419 PP       0.076800
   3765 CB         19.4500   31.2000   57.2100 c3       419 PP      -0.265900
   3766 H21        17.1000   31.1500   58.0900 hc       419 PP       0.001900
   3767 H22        17.4500   29.6000   58.7600 hc       419 PP       0.001900
   3768 H1         17.9700   30.5900   55.9400 hc       419 PP       0.001800
   3769 HB1        19.0000   32.1900   57.3200 hc       419 PP       0.063200
   3770 HB2        19.9900   31.0200   58.1500 hc       419 PP       0.063200
   3771 HB3        20.2400   31.2900   56.4600 hc       419 PP       0.063200
   3772 C2         19.1600   28.7700   56.5300 c3       420 PP      -0.006100
   3773 C1         19.4300   27.7800   57.6400 c3       420 PP       0.076800
   3774 CB         20.0900   26.4300   57.1500 c3       420 PP      -0.265900
   3775 H21        20.0800   29.0400   56.0000 hc       420 PP       0.001900
   3776 H22        18.5600   28.3100   55.7300 hc       420 PP       0.001900
   3777 H1         19.9100   28.2200   58.5200 hc       420 PP       0.001800
   3778 HB1        19.4800   25.5300   57.3000 hc       420 PP       0.063200
   3779 HB2        20.3300   26.5200   56.0800 hc       420 PP       0.063200
   3780 HB3        21.0400   26.1700   57.6400 hc       420 PP       0.063200
   3781 C2         47.6900   66.6600   60.6800 c3       421 PP      -0.006100
   3782 C1         48.4200   67.0900   62.0100 c3       421 PP       0.076800
   3783 CB         49.9400   67.0100   61.8800 c3       421 PP      -0.265900
   3784 H21        48.1200   65.6800   60.4400 hc       421 PP       0.001900
   3785 H22        48.0400   67.3400   59.9000 hc       421 PP       0.001900
   3786 H1         48.1600   66.2700   62.6900 hc       421 PP       0.001800
   3787 HB1        50.4100   67.1200   62.8600 hc       421 PP       0.063200
   3788 HB2        50.1700   65.9900   61.5400 hc       421 PP       0.063200
   3789 HB3        50.3700   67.7700   61.2200 hc       421 PP       0.063200
   3790 C2         47.9600   68.4100   62.6200 c3       422 PP      -0.006100
   3791 C1         46.5400   68.4300   63.2800 c3       422 PP       0.076800
   3792 CB         45.4700   68.4300   62.1300 c3       422 PP      -0.265900
   3793 H21        48.6500   68.6400   63.4400 hc       422 PP       0.001900
   3794 H22        48.1000   69.2600   61.9400 hc       422 PP       0.001900
   3795 H1         46.5400   69.4000   63.7900 hc       422 PP       0.001800
   3796 HB1        45.8600   68.9600   61.2600 hc       422 PP       0.063200
   3797 HB2        45.2400   67.3800   61.9100 hc       422 PP       0.063200
   3798 HB3        44.5600   68.8500   62.5800 hc       422 PP       0.063200
   3799 C2         46.2500   67.4200   64.4100 c3       423 PP      -0.006100
   3800 C1         47.3500   67.3700   65.5600 c3       423 PP       0.076800
   3801 CB         47.1500   68.6700   66.4100 c3       423 PP      -0.265900
   3802 H21        45.2700   67.6300   64.8700 hc       423 PP       0.001900
   3803 H22        46.1800   66.4100   64.0000 hc       423 PP       0.001900
   3804 H1         48.3800   67.2300   65.2100 hc       423 PP       0.001800
   3805 HB1        47.6400   69.4800   65.8400 hc       423 PP       0.063200
   3806 HB2        46.1300   68.9400   66.6800 hc       423 PP       0.063200
   3807 HB3        47.8300   68.6500   67.2700 hc       423 PP       0.063200
   3808 C2         47.0200   66.0800   66.4700 c3       424 PP      -0.006100
   3809 C1         47.3800   64.6800   65.7800 c3       424 PP       0.076800
   3810 CB         48.9000   64.3700   65.8600 c3       424 PP      -0.265900
   3811 H21        47.4300   66.1000   67.4800 hc       424 PP       0.001900
   3812 H22        45.9300   66.0300   66.5800 hc       424 PP       0.001900
   3813 H1         47.0400   64.7000   64.7400 hc       424 PP       0.001800
   3814 HB1        49.4300   64.8400   65.0200 hc       424 PP       0.063200
   3815 HB2        49.3000   64.8500   66.7600 hc       424 PP       0.063200
   3816 HB3        49.1700   63.3100   66.0100 hc       424 PP       0.063200
   3817 C2         46.6200   63.5000   66.5600 c3       425 PP      -0.006100
   3818 C1         46.4300   62.2100   65.7900 c3       425 PP       0.076800
   3819 CB         46.8800   60.9800   66.5900 c3       425 PP      -0.265900
   3820 H21        47.2100   63.3800   67.4800 hc       425 PP       0.001900
   3821 H22        45.6300   63.8400   66.8700 hc       425 PP       0.001900
   3822 H1         46.9500   62.2200   64.8200 hc       425 PP       0.001800
   3823 HB1        47.8700   61.1400   67.0300 hc       425 PP       0.063200
   3824 HB2        46.2300   60.8300   67.4600 hc       425 PP       0.063200
   3825 HB3        46.9100   60.0800   65.9700 hc       425 PP       0.063200
   3826 C2         44.9200   61.9800   65.2800 c3       426 PP      -0.006100
   3827 C1         44.4300   62.9900   64.2700 c3       426 PP       0.076800
   3828 CB         45.2800   63.0700   62.9600 c3       426 PP      -0.265900
   3829 H21        44.9700   60.9700   64.8500 hc       426 PP       0.001900
   3830 H22        44.2500   61.9200   66.1400 hc       426 PP       0.001900
   3831 H1         44.4800   64.0100   64.6700 hc       426 PP       0.001800
   3832 HB1        46.3300   63.3200   63.1000 hc       426 PP       0.063200
   3833 HB2        45.3300   62.1500   62.3600 hc       426 PP       0.063200
   3834 HB3        44.7400   63.8600   62.4300 hc       426 PP       0.063200
   3835 C2         42.9500   62.7200   63.9200 c3       427 PP      -0.006100
   3836 C1         41.9000   63.8200   64.0800 c3       427 PP       0.076800
   3837 CB         40.6600   63.4500   63.1800 c3       427 PP      -0.265900
   3838 H21        42.8600   62.3400   62.8900 hc       427 PP       0.001900
   3839 H22        42.5900   61.9000   64.5400 hc       427 PP       0.001900
   3840 H1         42.3700   64.7400   63.7100 hc       427 PP       0.001800
   3841 HB1        39.9900   64.3200   63.1900 hc       427 PP       0.063200
   3842 HB2        41.0400   63.3300   62.1600 hc       427 PP       0.063200
   3843 HB3        40.3100   62.4500   63.4600 hc       427 PP       0.063200
   3844 C2         41.4700   63.8700   65.5300 c3       428 PP      -0.006100
   3845 C1         41.5300   65.3300   66.0100 c3       428 PP       0.076800
   3846 CB         42.9400   65.9200   66.1700 c3       428 PP      -0.265900
   3847 H21        40.4300   63.5300   65.6000 hc       428 PP       0.001900
   3848 H22        42.2600   63.3900   66.1300 hc       428 PP       0.001900
   3849 H1         41.1800   65.3200   67.0500 hc       428 PP       0.001800
   3850 HB1        43.4900   65.2500   66.8400 hc       428 PP       0.063200
   3851 HB2        43.3900   66.1100   65.1900 hc       428 PP       0.063200
   3852 HB3        42.8700   66.9100   66.6300 hc       428 PP       0.063200
   3853 C2         40.5400   66.1500   65.0800 c3       429 PP      -0.006100
   3854 C1         39.8900   67.4200   65.6800 c3       429 PP       0.076800
   3855 CB         38.8700   67.1600   66.8600 c3       429 PP      -0.265900
   3856 H21        40.9800   66.4100   64.1100 hc       429 PP       0.001900
   3857 H22        39.7000   65.4800   64.8400 hc       429 PP       0.001900
   3858 H1         39.1800   67.7300   64.9100 hc       429 PP       0.001800
   3859 HB1        39.4900   67.1500   67.7700 hc       429 PP       0.063200
   3860 HB2        38.1600   67.9900   66.9300 hc       429 PP       0.063200
   3861 HB3        38.3600   66.1900   66.8100 hc       429 PP       0.063200
   3862 C2         40.7700   68.6200   65.8600 c3       430 PP      -0.006100
   3863 C1         39.9000   69.9800   65.7700 c3       430 PP       0.076800
   3864 CB         40.0700   70.8600   67.0100 c3       430 PP      -0.265900
   3865 H21        41.4100   68.6100   66.7500 hc       430 PP       0.001900
   3866 H22        41.4900   68.6900   65.0400 hc       430 PP       0.001900
   3867 H1         38.8300   69.7200   65.8400 hc       430 PP       0.001800
   3868 HB1        39.3000   71.6300   67.0700 hc       430 PP       0.063200
   3869 HB2        39.8900   70.2500   67.9100 hc       430 PP       0.063200
   3870 HB3        41.0500   71.3200   67.1900 hc       430 PP       0.063200
   3871 C2         40.1500   70.7700   64.4300 c3       431 PP      -0.006100
   3872 C1         39.6200   69.9400   63.1600 c3       431 PP       0.076800
   3873 CB         38.0500   69.7500   63.2500 c3       431 PP      -0.265900
   3874 H21        39.6700   71.7500   64.4900 hc       431 PP       0.001900
   3875 H22        41.1700   71.1100   64.1900 hc       431 PP       0.001900
   3876 H1         40.0700   68.9400   63.1800 hc       431 PP       0.001800
   3877 HB1        37.7400   69.2000   64.1500 hc       431 PP       0.063200
   3878 HB2        37.7300   70.7900   63.4000 hc       431 PP       0.063200
   3879 HB3        37.6100   69.2800   62.3700 hc       431 PP       0.063200
   3880 C2         40.0600   70.6700   61.8800 c3       432 PP      -0.006100
   3881 C1         41.4900   70.3100   61.3400 c3       432 PP       0.076800
   3882 CB         41.4700   68.8600   60.7100 c3       432 PP      -0.265900
   3883 H21        39.3400   70.5200   61.0600 hc       432 PP       0.001900
   3884 H22        39.9900   71.7400   62.1100 hc       432 PP       0.001900
   3885 H1         42.2000   70.2700   62.1800 hc       432 PP       0.001800
   3886 HB1        41.0200   68.2000   61.4700 hc       432 PP       0.063200
   3887 HB2        40.8100   68.9000   59.8400 hc       432 PP       0.063200
   3888 HB3        42.5000   68.5900   60.4700 hc       432 PP       0.063200
   3889 C2         42.1200   71.2600   60.3300 c3       433 PP      -0.006100
   3890 C1         42.2600   72.7400   60.7600 c3       433 PP       0.076800
   3891 CB         42.6700   72.8600   62.2100 c3       433 PP      -0.265900
   3892 H21        43.0500   70.8200   59.9500 hc       433 PP       0.001900
   3893 H22        41.5300   71.2700   59.4000 hc       433 PP       0.001900
   3894 H1         41.2300   73.1200   60.7600 hc       433 PP       0.001800
   3895 HB1        43.1700   73.8200   62.3900 hc       433 PP       0.063200
   3896 HB2        41.8500   72.8900   62.9400 hc       433 PP       0.063200
   3897 HB3        43.4600   72.2100   62.6000 hc       433 PP       0.063200
   3898 C2         43.0600   73.5700   59.8000 c3       434 PP      -0.006100
   3899 C1         44.3700   72.9700   59.2200 c3       434 PP       0.076800
   3900 CB         45.1500   73.9800   58.3400 c3       434 PP      -0.265900
   3901 H21        42.3900   73.8300   58.9700 hc       434 PP       0.001900
   3902 H22        43.2700   74.5500   60.2500 hc       434 PP       0.001900
   3903 H1         44.1600   72.0500   58.6600 hc       434 PP       0.001800
   3904 HB1        44.6000   74.1700   57.4100 hc       434 PP       0.063200
   3905 HB2        45.3500   74.9400   58.8500 hc       434 PP       0.063200
   3906 HB3        46.1300   73.7100   57.9300 hc       434 PP       0.063200
   3907 C2         45.3400   72.6700   60.5200 c3       435 PP      -0.006100
   3908 C1         46.8500   72.4000   60.2100 c3       435 PP       0.076800
   3909 CB         47.5500   72.1600   61.5800 c3       435 PP      -0.265900
   3910 H21        45.2400   73.5700   61.1400 hc       435 PP       0.001900
   3911 H22        44.9500   71.7800   61.0300 hc       435 PP       0.001900
   3912 H1         47.2400   73.3200   59.7700 hc       435 PP       0.001800
   3913 HB1        47.7400   73.0400   62.2100 hc       435 PP       0.063200
   3914 HB2        47.0200   71.3700   62.1300 hc       435 PP       0.063200
   3915 HB3        48.5500   71.7300   61.4300 hc       435 PP       0.063200
   3916 C2         47.0100   71.2900   59.1200 c3       436 PP      -0.006100
   3917 C1         48.4300   71.1300   58.3600 c3       436 PP       0.076800
   3918 CB         48.3700   69.7400   57.7400 c3       436 PP      -0.265900
   3919 H21        46.7600   70.3100   59.5500 hc       436 PP       0.001900
   3920 H22        46.3500   71.5200   58.2800 hc       436 PP       0.001900
   3921 H1         49.2700   71.2400   59.0500 hc       436 PP       0.001800
   3922 HB1        47.7500   69.6400   56.8400 hc       436 PP       0.063200
   3923 HB2        49.3900   69.4200   57.5000 hc       436 PP       0.063200
   3924 HB3        48.0300   68.9400   58.4100 hc       436 PP       0.063200
   3925 C2         48.6700   72.3000   57.3600 c3       437 PP      -0.006100
   3926 C1         50.1900   72.5600   57.0300 c3       437 PP       0.076800
   3927 CB         50.9100   71.3700   56.4200 c3       437 PP      -0.265900
   3928 H21        48.0600   72.0500   56.4800 hc       437 PP       0.001900
   3929 H22        48.2100   73.1600   57.8700 hc       437 PP       0.001900
   3930 H1         50.7200   72.8000   57.9600 hc       437 PP       0.001800
   3931 HB1        51.1900   70.7300   57.2700 hc       437 PP       0.063200
   3932 HB2        50.2600   70.8300   55.7100 hc       437 PP       0.063200
   3933 HB3        51.8100   71.7300   55.9000 hc       437 PP       0.063200
   3934 C2         50.4300   73.9300   56.2700 c3       438 PP      -0.006100
   3935 C1         49.7400   73.9700   54.8200 c3       438 PP       0.076800
   3936 CB         49.3900   75.4500   54.5800 c3       438 PP      -0.265900
   3937 H21        50.0400   74.8200   56.7900 hc       438 PP       0.001900
   3938 H22        51.4900   74.1300   56.0900 hc       438 PP       0.001900
   3939 H1         48.7500   73.5000   54.8000 hc       438 PP       0.001800
   3940 HB1        50.3000   76.0600   54.5400 hc       438 PP       0.063200
   3941 HB2        48.7900   75.5700   53.6700 hc       438 PP       0.063200
   3942 HB3        48.7400   75.9100   55.3400 hc       438 PP       0.063200
   3943 C2         50.5600   73.3500   53.6600 c3       439 PP      -0.006100
   3944 C1         50.0800   73.7700   52.2200 c3       439 PP       0.076800
   3945 CB         51.1600   73.2100   51.2200 c3       439 PP      -0.265900
   3946 H21        51.5900   73.6900   53.8300 hc       439 PP       0.001900
   3947 H22        50.6200   72.2600   53.6900 hc       439 PP       0.001900
   3948 H1         50.0400   74.8600   52.0800 hc       439 PP       0.001800
   3949 HB1        52.1600   73.3300   51.6500 hc       439 PP       0.063200
   3950 HB2        50.9700   72.1400   51.0900 hc       439 PP       0.063200
   3951 HB3        51.2300   73.7100   50.2500 hc       439 PP       0.063200
   3952 C2         48.6400   73.1900   51.8900 c3       440 PP      -0.006100
   3953 C1         48.1000   73.2900   50.4900 c3       440 PP       0.076800
   3954 CB         48.2300   71.9300   49.6800 c3       440 PP      -0.265900
   3955 H21        48.6700   72.1600   52.2400 hc       440 PP       0.001900
   3956 H22        47.8700   73.5300   52.5900 hc       440 PP       0.001900
   3957 H1         48.7100   74.0200   49.9500 hc       440 PP       0.001800
   3958 HB1        48.9900   71.2700   50.1300 hc       440 PP       0.063200
   3959 HB2        47.2500   71.4400   49.6800 hc       440 PP       0.063200
   3960 HB3        48.5500   72.0700   48.6400 hc       440 PP       0.063200
   3961 C2         46.6500   73.8200   50.5000 c3       441 PP      -0.006100
   3962 C1         46.6100   75.3600   50.8100 c3       441 PP       0.076800
   3963 CB         47.1200   76.2700   49.5900 c3       441 PP      -0.265900
   3964 H21        46.2100   73.6200   49.5200 hc       441 PP       0.001900
   3965 H22        46.1500   73.2200   51.2800 hc       441 PP       0.001900
   3966 H1         47.2700   75.4900   51.6800 hc       441 PP       0.001800
   3967 HB1        46.3100   76.4300   48.8700 hc       441 PP       0.063200
   3968 HB2        47.4300   77.2500   50.0000 hc       441 PP       0.063200
   3969 HB3        47.9600   75.7800   49.0700 hc       441 PP       0.063200
   3970 C2         45.2400   75.8800   51.1800 c3       442 PP      -0.006100
   3971 C1         44.4800   75.3100   52.4300 c3       442 PP       0.076800
   3972 CB         45.3900   75.2300   53.6000 c3       442 PP      -0.265900
   3973 H21        45.3400   76.9700   51.2400 hc       442 PP       0.001900
   3974 H22        44.7600   75.6700   50.2100 hc       442 PP       0.001900
   3975 H1         44.2400   74.2600   52.2100 hc       442 PP       0.001800
   3976 HB1        44.8500   74.9200   54.5000 hc       442 PP       0.063200
   3977 HB2        46.2600   74.5700   53.4600 hc       442 PP       0.063200
   3978 HB3        45.7200   76.2400   53.8600 hc       442 PP       0.063200
   3979 C2         43.1600   76.1000   52.7900 c3       443 PP      -0.006100
   3980 C1         42.3900   76.8500   51.5800 c3       443 PP       0.076800
   3981 CB         41.7800   75.7800   50.6600 c3       443 PP      -0.265900
   3982 H21        42.5100   75.4300   53.3700 hc       443 PP       0.001900
   3983 H22        43.4700   76.8800   53.5000 hc       443 PP       0.001900
   3984 H1         43.1400   77.3500   50.9600 hc       443 PP       0.001800
   3985 HB1        41.2900   76.3600   49.8700 hc       443 PP       0.063200
   3986 HB2        42.4800   75.1200   50.1300 hc       443 PP       0.063200
   3987 HB3        41.0500   75.1000   51.1100 hc       443 PP       0.063200
   3988 C2         41.3600   77.8600   52.1900 c3       444 PP      -0.006100
   3989 C1         41.1800   79.1900   51.3700 c3       444 PP       0.076800
   3990 CB         39.9700   79.9000   51.9100 c3       444 PP      -0.265900
   3991 H21        40.4200   77.3100   52.3000 hc       444 PP       0.001900
   3992 H22        41.5700   78.1500   53.2300 hc       444 PP       0.001900
   3993 H1         41.2100   78.8600   50.3200 hc       444 PP       0.001800
   3994 HB1        39.2500   79.7600   51.0900 hc       444 PP       0.063200
   3995 HB2        39.5600   79.5900   52.8800 hc       444 PP       0.063200
   3996 HB3        40.0600   80.9800   52.0700 hc       444 PP       0.063200
   3997 C2         42.3700    0.2300   51.5300 c3       445 PP      -0.006100
   3998 C1         42.7200    1.1000   50.2900 c3       445 PP       0.076800
   3999 CB         41.5500    2.0500   49.8300 c3       445 PP      -0.265900
   4000 H21        42.2800    0.9000   52.3900 hc       445 PP       0.001900
   4001 H22        43.2700   -0.3300   51.8100 hc       445 PP       0.001900
   4002 H1         42.9200    0.5700   49.3400 hc       445 PP       0.001800
   4003 HB1        40.7300    1.4700   49.3700 hc       445 PP       0.063200
   4004 HB2        41.1500    2.6600   50.6500 hc       445 PP       0.063200
   4005 HB3        41.8100    2.7100   49.0000 hc       445 PP       0.063200
   4006 C2         43.9300    2.0500   50.5300 c3       446 PP      -0.006100
   4007 C1         45.3000    1.4500   50.9700 c3       446 PP       0.076800
   4008 CB         45.7000    0.4300   49.9100 c3       446 PP      -0.265900
   4009 H21        44.0200    2.7000   49.6500 hc       446 PP       0.001900
   4010 H22        43.6000    2.7300   51.3200 hc       446 PP       0.001900
   4011 H1         45.2700    0.9800   51.9600 hc       446 PP       0.001800
   4012 HB1        46.7700    0.2400   49.9900 hc       446 PP       0.063200
   4013 HB2        45.1100   -0.4700   50.1300 hc       446 PP       0.063200
   4014 HB3        45.4900    0.8600   48.9200 hc       446 PP       0.063200
   4015 C2         46.4000    2.5400   51.0200 c3       447 PP      -0.006100
   4016 C1         46.2300    3.7300   52.0000 c3       447 PP       0.076800
   4017 CB         46.0300    3.3800   53.4600 c3       447 PP      -0.265900
   4018 H21        47.3800    2.1100   51.2200 hc       447 PP       0.001900
   4019 H22        46.5400    2.8800   49.9800 hc       447 PP       0.001900
   4020 H1         45.2700    4.2200   51.7900 hc       447 PP       0.001800
   4021 HB1        45.9400    4.2900   54.0800 hc       447 PP       0.063200
   4022 HB2        45.1900    2.7000   53.5900 hc       447 PP       0.063200
   4023 HB3        46.9300    2.9200   53.9000 hc       447 PP       0.063200
   4024 C2         47.3900    4.8300   51.8700 c3       448 PP      -0.006100
   4025 C1         47.5400    5.5700   50.4900 c3       448 PP       0.076800
   4026 CB         46.1900    6.0100   49.7900 c3       448 PP      -0.265900
   4027 H21        47.0900    5.6200   52.5700 hc       448 PP       0.001900
   4028 H22        48.3600    4.4500   52.2000 hc       448 PP       0.001900
   4029 H1         47.9200    4.8700   49.7400 hc       448 PP       0.001800
   4030 HB1        46.2800    6.8200   49.0700 hc       448 PP       0.063200
   4031 HB2        45.7200    5.0900   49.4000 hc       448 PP       0.063200
   4032 HB3        45.4400    6.4700   50.4400 hc       448 PP       0.063200
   4033 C2         48.4400    6.7800   50.6400 c3       449 PP      -0.006100
   4034 C1         49.8700    6.5300   51.2900 c3       449 PP       0.076800
   4035 CB         50.7000    5.5900   50.4500 c3       449 PP      -0.265900
   4036 H21        48.4900    7.2100   49.6400 hc       449 PP       0.001900
   4037 H22        48.0600    7.5700   51.3000 hc       449 PP       0.001900
   4038 H1         49.7400    6.1100   52.2900 hc       449 PP       0.001800
   4039 HB1        50.0600    4.7600   50.1400 hc       449 PP       0.063200
   4040 HB2        51.1900    5.8900   49.5200 hc       449 PP       0.063200
   4041 HB3        51.4800    5.1000   51.0500 hc       449 PP       0.063200
   4042 C2         50.6900    7.7800   51.6800 c3       450 PP      -0.006100
   4043 C1         51.1700    8.6000   50.4300 c3       450 PP       0.076800
   4044 CB         51.7500   10.0400   50.7700 c3       450 PP      -0.265900
   4045 H21        51.5400    7.5100   52.3200 hc       450 PP       0.001900
   4046 H22        50.0500    8.4600   52.2700 hc       450 PP       0.001900
   4047 H1         50.4200    8.6500   49.6300 hc       450 PP       0.001800
   4048 HB1        51.1100   10.9200   50.8400 hc       450 PP       0.063200
   4049 HB2        52.3200   10.0300   51.7200 hc       450 PP       0.063200
   4050 HB3        52.3600   10.3600   49.9200 hc       450 PP       0.063200
   4051 C2         66.8500   37.2200   62.2900 c3       451 PP      -0.006100
   4052 C1         66.7300   35.7700   62.9700 c3       451 PP       0.076800
   4053 CB         65.3500   35.7500   63.7000 c3       451 PP      -0.265900
   4054 H21        66.8100   37.9800   63.0900 hc       451 PP       0.001900
   4055 H22        67.8400   37.3000   61.8300 hc       451 PP       0.001900
   4056 H1         67.5600   35.6700   63.6800 hc       451 PP       0.001800
   4057 HB1        65.2200   34.8300   64.2800 hc       451 PP       0.063200
   4058 HB2        65.3200   36.5300   64.4600 hc       451 PP       0.063200
   4059 HB3        64.5400   35.7800   62.9500 hc       451 PP       0.063200
   4060 C2         66.7300   34.6900   61.8100 c3       452 PP      -0.006100
   4061 C1         68.0500   34.3800   61.0300 c3       452 PP       0.076800
   4062 CB         69.0100   33.5100   61.9100 c3       452 PP      -0.265900
   4063 H21        66.2800   33.7600   62.2000 hc       452 PP       0.001900
   4064 H22        65.9000   34.9400   61.1400 hc       452 PP       0.001900
   4065 H1         68.6600   35.2700   60.8200 hc       452 PP       0.001800
   4066 HB1        68.8200   33.7200   62.9700 hc       452 PP       0.063200
   4067 HB2        68.9200   32.4300   61.7600 hc       452 PP       0.063200
   4068 HB3        70.0600   33.7000   61.6600 hc       452 PP       0.063200
   4069 C2         67.7000   33.7600   59.6400 c3       453 PP      -0.006100
   4070 C1         68.8800   33.5800   58.6800 c3       453 PP       0.076800
   4071 CB         69.4900   32.1100   58.8500 c3       453 PP      -0.265900
   4072 H21        67.2000   32.7900   59.7700 hc       453 PP       0.001900
   4073 H22        66.9700   34.4100   59.1600 hc       453 PP       0.001900
   4074 H1         69.6400   34.2700   59.0800 hc       453 PP       0.001800
   4075 HB1        69.9900   31.7000   57.9600 hc       453 PP       0.063200
   4076 HB2        70.0800   32.0200   59.7700 hc       453 PP       0.063200
   4077 HB3        68.7300   31.3500   59.0900 hc       453 PP       0.063200
   4078 C2         68.6300   33.9600   57.3000 c3       454 PP      -0.006100
   4079 C1         69.9700   34.2200   56.5000 c3       454 PP       0.076800
   4080 CB         69.6800   33.9500   54.9600 c3       454 PP      -0.265900
   4081 H21        68.0300   33.1600   56.8600 hc       454 PP       0.001900
   4082 H22        68.0100   34.8600   57.2600 hc       454 PP       0.001900
   4083 H1         70.7000   33.4200   56.6800 hc       454 PP       0.001800
   4084 HB1        70.3900   34.4300   54.2800 hc       454 PP       0.063200
   4085 HB2        69.6300   32.8700   54.7600 hc       454 PP       0.063200
   4086 HB3        68.6800   34.2800   54.6600 hc       454 PP       0.063200
   4087 C2         70.5200   35.6500   56.7000 c3       455 PP      -0.006100
   4088 C1         71.7700   35.7700   57.5800 c3       455 PP       0.076800
   4089 CB         73.0900   35.0800   57.1000 c3       455 PP      -0.265900
   4090 H21        70.8300   36.0100   55.7100 hc       455 PP       0.001900
   4091 H22        69.7500   36.3800   56.9700 hc       455 PP       0.001900
   4092 H1         71.5800   35.2500   58.5300 hc       455 PP       0.001800
   4093 HB1        72.9500   34.0200   56.8700 hc       455 PP       0.063200
   4094 HB2        73.5800   35.5600   56.2400 hc       455 PP       0.063200
   4095 HB3        73.7800   35.1900   57.9400 hc       455 PP       0.063200
   4096 C2         72.0800   37.3400   57.9100 c3       456 PP      -0.006100
   4097 C1         71.5100   37.8800   59.2400 c3       456 PP       0.076800
   4098 CB         70.0300   37.8400   59.2100 c3       456 PP      -0.265900
   4099 H21        73.1600   37.5400   57.9400 hc       456 PP       0.001900
   4100 H22        71.7700   37.9100   57.0300 hc       456 PP       0.001900
   4101 H1         71.8100   38.9300   59.3600 hc       456 PP       0.001800
   4102 HB1        69.6600   38.2000   60.1800 hc       456 PP       0.063200
   4103 HB2        69.6400   38.6100   58.5300 hc       456 PP       0.063200
   4104 HB3        69.4700   36.9100   59.0200 hc       456 PP       0.063200
   4105 C2         72.0800   37.1800   60.5200 c3       457 PP      -0.006100
   4106 C1         73.5900   37.3200   60.7800 c3       457 PP       0.076800
   4107 CB         73.9200   38.7400   61.2100 c3       457 PP      -0.265900
   4108 H21        71.6300   37.6300   61.4100 hc       457 PP       0.001900
   4109 H22        71.8200   36.1200   60.5300 hc       457 PP       0.001900
   4110 H1         74.2100   37.0800   59.9100 hc       457 PP       0.001800
   4111 HB1        73.5600   39.5100   60.5200 hc       457 PP       0.063200
   4112 HB2        73.3600   38.9000   62.1400 hc       457 PP       0.063200
   4113 HB3        74.9600   38.9700   61.4500 hc       457 PP       0.063200
   4114 C2         74.0900   36.4000   61.9500 c3       458 PP      -0.006100
   4115 C1         74.2700   34.9700   61.3900 c3       458 PP       0.076800
   4116 CB         75.5400   34.8400   60.4600 c3       458 PP      -0.265900
   4117 H21        75.0700   36.7500   62.3000 hc       458 PP       0.001900
   4118 H22        73.4200   36.4700   62.8200 hc       458 PP       0.001900
   4119 H1         73.3600   34.7700   60.8100 hc       458 PP       0.001800
   4120 HB1        75.6900   33.7700   60.2700 hc       458 PP       0.063200
   4121 HB2        75.6300   35.3800   59.5000 hc       458 PP       0.063200
   4122 HB3        76.4300   35.1500   61.0200 hc       458 PP       0.063200
   4123 C2         74.4200   33.8900   62.4800 c3       459 PP      -0.006100
   4124 C1         73.0100   33.6900   63.2700 c3       459 PP       0.076800
   4125 CB         72.2900   32.3700   62.7500 c3       459 PP      -0.265900
   4126 H21        74.7000   32.8900   62.1000 hc       459 PP       0.001900
   4127 H22        75.2800   34.2600   63.0600 hc       459 PP       0.001900
   4128 H1         72.4800   34.6200   63.0200 hc       459 PP       0.001800
   4129 HB1        72.7400   31.4700   63.1900 hc       459 PP       0.063200
   4130 HB2        71.2100   32.3700   62.9500 hc       459 PP       0.063200
   4131 HB3        72.3200   32.3200   61.6500 hc       459 PP       0.063200
   4132 C2         73.3400   33.5900   64.7800 c3       460 PP      -0.006100
   4133 C1         72.0200   33.5400   65.6900 c3       460 PP       0.076800
   4134 CB         72.3400   32.9400   67.1000 c3       460 PP      -0.265900
   4135 H21        73.9400   32.7200   65.1000 hc       460 PP       0.001900
   4136 H22        73.8300   34.5500   64.9800 hc       460 PP       0.001900
   4137 H1         71.2200   33.0200   65.1600 hc       460 PP       0.001800
   4138 HB1        71.4400   32.4800   67.5400 hc       460 PP       0.063200
   4139 HB2        73.0300   32.0900   67.0000 hc       460 PP       0.063200
   4140 HB3        72.7600   33.6600   67.8000 hc       460 PP       0.063200
   4141 C2         71.4700   34.9700   65.9200 c3       461 PP      -0.006100
   4142 C1         69.9800   35.2800   65.6800 c3       461 PP       0.076800
   4143 CB         69.0800   34.2300   66.3800 c3       461 PP      -0.265900
   4144 H21        71.8100   35.4200   66.8600 hc       461 PP       0.001900
   4145 H22        71.9200   35.5500   65.1100 hc       461 PP       0.001900
   4146 H1         69.7800   35.2000   64.6000 hc       461 PP       0.001800
   4147 HB1        69.2300   33.2200   65.9800 hc       461 PP       0.063200
   4148 HB2        69.2700   34.2000   67.4600 hc       461 PP       0.063200
   4149 HB3        68.0300   34.5200   66.2000 hc       461 PP       0.063200
   4150 C2         69.7800   36.7500   66.2100 c3       462 PP      -0.006100
   4151 C1         70.6500   37.8000   65.4700 c3       462 PP       0.076800
   4152 CB         70.0900   38.0400   64.0400 c3       462 PP      -0.265900
   4153 H21        68.7200   37.0400   66.2100 hc       462 PP       0.001900
   4154 H22        70.0100   36.7100   67.2800 hc       462 PP       0.001900
   4155 H1         71.7100   37.5000   65.4500 hc       462 PP       0.001800
   4156 HB1        70.2600   37.1200   63.4700 hc       462 PP       0.063200
   4157 HB2        69.0700   38.4300   64.1200 hc       462 PP       0.063200
   4158 HB3        70.6800   38.7600   63.4600 hc       462 PP       0.063200
   4159 C2         70.5800   39.1000   66.2700 c3       463 PP      -0.006100
   4160 C1         71.7600   40.0800   65.9900 c3       463 PP       0.076800
   4161 CB         71.3300   41.5000   66.4100 c3       463 PP      -0.265900
   4162 H21        69.5800   39.5300   66.1400 hc       463 PP       0.001900
   4163 H22        70.6200   38.9000   67.3500 hc       463 PP       0.001900
   4164 H1         71.9700   40.0200   64.9200 hc       463 PP       0.001800
   4165 HB1        72.1000   42.2300   66.6800 hc       463 PP       0.063200
   4166 HB2        70.6800   41.8500   65.6000 hc       463 PP       0.063200
   4167 HB3        70.7100   41.4800   67.3200 hc       463 PP       0.063200
   4168 C2         73.0600   39.7500   66.7000 c3       464 PP      -0.006100
   4169 C1         74.0700   38.9500   65.8400 c3       464 PP       0.076800
   4170 CB         74.9500   39.9500   65.0300 c3       464 PP      -0.265900
   4171 H21        73.6400   40.5100   67.2400 hc       464 PP       0.001900
   4172 H22        72.7500   39.0900   67.5200 hc       464 PP       0.001900
   4173 H1         73.6300   38.1600   65.2100 hc       464 PP       0.001800
   4174 HB1        74.3200   40.8200   64.8100 hc       464 PP       0.063200
   4175 HB2        75.7700   40.2600   65.6900 hc       464 PP       0.063200
   4176 HB3        75.3600   39.4900   64.1200 hc       464 PP       0.063200
   4177 C2         74.9700   38.0400   66.7600 c3       465 PP      -0.006100
   4178 C1         75.9300   37.1300   66.0100 c3       465 PP       0.076800
   4179 CB         77.3100   37.8500   65.7800 c3       465 PP      -0.265900
   4180 H21        75.4900   38.6800   67.4900 hc       465 PP       0.001900
   4181 H22        74.2500   37.4400   67.3400 hc       465 PP       0.001900
   4182 H1         75.3400   36.9900   65.1000 hc       465 PP       0.001800
   4183 HB1        77.2700   38.8100   65.2500 hc       465 PP       0.063200
   4184 HB2        77.9400   37.9400   66.6700 hc       465 PP       0.063200
   4185 HB3        77.8800   37.3100   65.0200 hc       465 PP       0.063200
   4186 C2         76.2100   35.7600   66.7100 c3       466 PP      -0.006100
   4187 C1         77.2300   34.7700   66.0400 c3       466 PP       0.076800
   4188 CB         78.6800   35.1400   66.4800 c3       466 PP      -0.265900
   4189 H21        76.5200   35.8600   67.7600 hc       466 PP       0.001900
   4190 H22        75.2000   35.3200   66.7400 hc       466 PP       0.001900
   4191 H1         77.1400   34.7400   64.9500 hc       466 PP       0.001800
   4192 HB1        79.4300   34.3500   66.3100 hc       466 PP       0.063200
   4193 HB2        79.0500   35.9700   65.8800 hc       466 PP       0.063200
   4194 HB3        78.7000   35.5300   67.5000 hc       466 PP       0.063200
   4195 C2         76.9900   33.3400   66.6200 c3       467 PP      -0.006100
   4196 C1         77.3100   32.1300   65.6400 c3       467 PP       0.076800
   4197 CB         78.3000   32.4400   64.4600 c3       467 PP      -0.265900
   4198 H21        77.5300   33.1500   67.5600 hc       467 PP       0.001900
   4199 H22        75.9500   33.3400   66.9600 hc       467 PP       0.001900
   4200 H1         76.3400   32.0000   65.1500 hc       467 PP       0.001800
   4201 HB1        79.2700   32.7000   64.9000 hc       467 PP       0.063200
   4202 HB2        78.3700   31.5600   63.8100 hc       467 PP       0.063200
   4203 HB3        77.8500   33.2300   63.8500 hc       467 PP       0.063200
   4204 C2         77.6800   30.8000   66.4000 c3       468 PP      -0.006100
   4205 C1         77.5100   29.3300   65.6700 c3       468 PP       0.076800
   4206 CB         78.2200   28.1600   66.4500 c3       468 PP      -0.265900
   4207 H21        78.7500   30.9300   66.5900 hc       468 PP       0.001900
   4208 H22        77.1700   30.7200   67.3700 hc       468 PP       0.001900
   4209 H1         78.0500   29.3600   64.7200 hc       468 PP       0.001800
   4210 HB1        78.3100   27.2400   65.8600 hc       468 PP       0.063200
   4211 HB2        79.2200   28.4000   66.8200 hc       468 PP       0.063200
   4212 HB3        77.7500   27.7800   67.3700 hc       468 PP       0.063200
   4213 C2         76.0700   28.8900   65.4100 c3       469 PP      -0.006100
   4214 C1         75.2200   29.4300   64.2700 c3       469 PP       0.076800
   4215 CB         75.9900   29.5200   62.9000 c3       469 PP      -0.265900
   4216 H21        76.1100   27.8000   65.3700 hc       469 PP       0.001900
   4217 H22        75.5100   29.0900   66.3300 hc       469 PP       0.001900
   4218 H1         74.9000   30.4200   64.6000 hc       469 PP       0.001800
   4219 HB1        75.2200   29.5200   62.1200 hc       469 PP       0.063200
   4220 HB2        76.5500   30.4600   62.8300 hc       469 PP       0.063200
   4221 HB3        76.6500   28.6400   62.8700 hc       469 PP       0.063200
   4222 C2         73.9400   28.5100   64.0500 c3       470 PP      -0.006100
   4223 C1         72.9600   28.1500   65.3300 c3       470 PP       0.076800
   4224 CB         72.5100   29.4600   66.0700 c3       470 PP      -0.265900
   4225 H21        73.3000   28.9700   63.2800 hc       470 PP       0.001900
   4226 H22        74.2700   27.5800   63.5600 hc       470 PP       0.001900
   4227 H1         73.6200   27.5500   65.9700 hc       470 PP       0.001800
   4228 HB1        73.3400   30.1600   66.2300 hc       470 PP       0.063200
   4229 HB2        71.8300   30.0900   65.4900 hc       470 PP       0.063200
   4230 HB3        72.1000   29.3900   67.0900 hc       470 PP       0.063200
   4231 C2         71.8200   27.2400   64.8400 c3       471 PP      -0.006100
   4232 C1         71.0500   26.6100   66.0300 c3       471 PP       0.076800
   4233 CB         69.8400   27.4300   66.4700 c3       471 PP      -0.265900
   4234 H21        71.1600   27.8400   64.2100 hc       471 PP       0.001900
   4235 H22        72.2700   26.4900   64.1700 hc       471 PP       0.001900
   4236 H1         71.7600   26.6800   66.8700 hc       471 PP       0.001800
   4237 HB1        69.2300   27.8200   65.6500 hc       471 PP       0.063200
   4238 HB2        69.3400   26.9200   67.3000 hc       471 PP       0.063200
   4239 HB3        70.2500   28.3700   66.8600 hc       471 PP       0.063200
   4240 C2         70.7100   25.1300   65.6000 c3       472 PP      -0.006100
   4241 C1         69.4800   24.8700   64.5900 c3       472 PP       0.076800
   4242 CB         70.0400   24.7900   63.1600 c3       472 PP      -0.265900
   4243 H21        71.5200   24.4800   65.2400 hc       472 PP       0.001900
   4244 H22        70.5500   24.6300   66.5700 hc       472 PP       0.001900
   4245 H1         68.7900   25.7200   64.6300 hc       472 PP       0.001800
   4246 HB1        70.8900   24.0900   63.1500 hc       472 PP       0.063200
   4247 HB2        69.3400   24.4000   62.4200 hc       472 PP       0.063200
   4248 HB3        70.4000   25.7800   62.8500 hc       472 PP       0.063200
   4249 C2         68.7600   23.4900   64.9500 c3       473 PP      -0.006100
   4250 C1         68.1100   23.3500   66.3700 c3       473 PP       0.076800
   4251 CB         67.0800   24.5200   66.5300 c3       473 PP      -0.265900
   4252 H21        67.9400   23.3800   64.2300 hc       473 PP       0.001900
   4253 H22        69.4800   22.6700   64.8900 hc       473 PP       0.001900
   4254 H1         68.8200   23.2700   67.2100 hc       473 PP       0.001800
   4255 HB1        67.6100   25.4600   66.3400 hc       473 PP       0.063200
   4256 HB2        66.1200   24.4800   66.0100 hc       473 PP       0.063200
   4257 HB3        66.7400   24.5300   67.5700 hc       473 PP       0.063200
   4258 C2         67.4000   21.9800   66.4500 c3       474 PP      -0.006100
   4259 C1         68.2100   20.6500   66.0300 c3       474 PP       0.076800
   4260 CB         69.5700   20.4300   66.7700 c3       474 PP      -0.265900
   4261 H21        67.1000   21.8000   67.4900 hc       474 PP       0.001900
   4262 H22        66.5000   22.0800   65.8300 hc       474 PP       0.001900
   4263 H1         68.4800   20.5900   64.9700 hc       474 PP       0.001800
   4264 HB1        70.2500   21.2800   66.6600 hc       474 PP       0.063200
   4265 HB2        69.4400   20.4000   67.8600 hc       474 PP       0.063200
   4266 HB3        70.0400   19.5700   66.2800 hc       474 PP       0.063200
   4267 C2         67.1600   19.4700   66.2100 c3       475 PP      -0.006100
   4268 C1         67.3800   18.0900   65.5400 c3       475 PP       0.076800
   4269 CB         68.5700   17.2800   66.2600 c3       475 PP      -0.265900
   4270 H21        66.9700   19.3300   67.2800 hc       475 PP       0.001900
   4271 H22        66.2500   19.9300   65.8100 hc       475 PP       0.001900
   4272 H1         67.4300   18.2000   64.4500 hc       475 PP       0.001800
   4273 HB1        68.3800   16.2000   66.1500 hc       475 PP       0.063200
   4274 HB2        69.5100   17.4600   65.7200 hc       475 PP       0.063200
   4275 HB3        68.6300   17.5300   67.3200 hc       475 PP       0.063200
   4276 C2         66.0200   17.3400   65.6500 c3       476 PP      -0.006100
   4277 C1         65.8800   15.9800   64.7500 c3       476 PP       0.076800
   4278 CB         65.5900   14.8100   65.7600 c3       476 PP      -0.265900
   4279 H21        65.9600   17.1400   66.7300 hc       476 PP       0.001900
   4280 H22        65.1800   17.9800   65.3300 hc       476 PP       0.001900
   4281 H1         66.8600   15.7200   64.3200 hc       476 PP       0.001800
   4282 HB1        66.4800   14.6700   66.4000 hc       476 PP       0.063200
   4283 HB2        64.8400   15.1200   66.4900 hc       476 PP       0.063200
   4284 HB3        65.2300   13.8800   65.3100 hc       476 PP       0.063200
   4285 C2         64.9000   16.0500   63.5700 c3       477 PP      -0.006100
   4286 C1         65.1900   17.1100   62.4700 c3       477 PP       0.076800
   4287 CB         66.0200   16.5100   61.3400 c3       477 PP      -0.265900
   4288 H21        64.8300   15.0900   63.0600 hc       477 PP       0.001900
   4289 H22        63.9200   16.2600   64.0300 hc       477 PP       0.001900
   4290 H1         65.8900   17.8600   62.8700 hc       477 PP       0.001800
   4291 HB1        66.4500   17.2400   60.6400 hc       477 PP       0.063200
   4292 HB2        66.8400   15.8900   61.7400 hc       477 PP       0.063200
   4293 HB3        65.4400   15.8100   60.7200 hc       477 PP       0.063200
   4294 C2         63.8200   17.7500   61.9900 c3       478 PP      -0.006100
   4295 C1         63.8000   18.7500   60.8800 c3       478 PP       0.076800
   4296 CB         62.3700   19.2400   60.4700 c3       478 PP      -0.265900
   4297 H21        63.2800   16.9100   61.5300 hc       478 PP       0.001900
   4298 H22        63.2300   18.1400   62.8300 hc       478 PP       0.001900
   4299 H1         64.2100   18.1900   60.0300 hc       478 PP       0.001800
   4300 HB1        61.8500   19.6900   61.3200 hc       478 PP       0.063200
   4301 HB2        62.3100   19.9500   59.6400 hc       478 PP       0.063200
   4302 HB3        61.7800   18.4200   60.0500 hc       478 PP       0.063200
   4303 C2         64.7200   19.9300   61.1400 c3       479 PP      -0.006100
   4304 C1         64.2600   20.8400   62.3600 c3       479 PP       0.076800
   4305 CB         65.5600   21.2200   63.1300 c3       479 PP      -0.265900
   4306 H21        65.6900   19.4900   61.4000 hc       479 PP       0.001900
   4307 H22        64.7800   20.6100   60.2900 hc       479 PP       0.001900
   4308 H1         63.6200   20.2400   63.0200 hc       479 PP       0.001800
   4309 HB1        66.2700   21.9700   62.7400 hc       479 PP       0.063200
   4310 HB2        65.2700   21.6600   64.0900 hc       479 PP       0.063200
   4311 HB3        66.1000   20.2900   63.3600 hc       479 PP       0.063200
   4312 C2         63.4500   22.1700   61.9800 c3       480 PP      -0.006100
   4313 C1         63.9500   22.8000   60.6600 c3       480 PP       0.076800
   4314 CB         63.8900   24.3000   60.6700 c3       480 PP      -0.265900
   4315 H21        63.4500   22.8300   62.8600 hc       480 PP       0.001900
   4316 H22        62.3700   21.9900   61.9500 hc       480 PP       0.001900
   4317 H1         63.3300   22.4100   59.8400 hc       480 PP       0.001800
   4318 HB1        62.8900   24.7100   60.8300 hc       480 PP       0.063200
   4319 HB2        64.4600   24.6200   61.5400 hc       480 PP       0.063200
   4320 HB3        64.3900   24.7800   59.8100 hc       480 PP       0.063200
   4321 C2         45.8700   71.7500   55.2900 c3       481 PP      -0.006100
   4322 C1         46.0900   71.0800   53.9300 c3       481 PP       0.076800
   4323 CB         46.8900   69.7900   54.1000 c3       481 PP      -0.265900
   4324 H21        45.3300   71.1000   55.9900 hc       481 PP       0.001900
   4325 H22        45.4300   72.7500   55.1800 hc       481 PP       0.001900
   4326 H1         46.6100   71.7500   53.2300 hc       481 PP       0.001800
   4327 HB1        47.7800   70.0800   54.6800 hc       481 PP       0.063200
   4328 HB2        46.3800   68.9200   54.5400 hc       481 PP       0.063200
   4329 HB3        47.3300   69.5000   53.1400 hc       481 PP       0.063200
   4330 C2         44.7000   70.8300   53.3200 c3       482 PP      -0.006100
   4331 C1         44.7200   70.2800   51.8200 c3       482 PP       0.076800
   4332 CB         44.8000   68.7600   51.7000 c3       482 PP      -0.265900
   4333 H21        44.1100   70.1900   53.9900 hc       482 PP       0.001900
   4334 H22        44.2200   71.8200   53.3700 hc       482 PP       0.001900
   4335 H1         45.7000   70.5600   51.4200 hc       482 PP       0.001800
   4336 HB1        45.7300   68.3500   52.1200 hc       482 PP       0.063200
   4337 HB2        43.9100   68.2900   52.1400 hc       482 PP       0.063200
   4338 HB3        44.8500   68.4700   50.6500 hc       482 PP       0.063200
   4339 C2         43.6100   70.9500   50.9300 c3       483 PP      -0.006100
   4340 C1         42.1000   70.7300   51.3700 c3       483 PP       0.076800
   4341 CB         41.2500   72.0500   51.1200 c3       483 PP      -0.265900
   4342 H21        43.7000   72.0500   50.8900 hc       483 PP       0.001900
   4343 H22        43.7300   70.6600   49.8800 hc       483 PP       0.001900
   4344 H1         41.9800   70.6900   52.4600 hc       483 PP       0.001800
   4345 HB1        41.8700   72.9300   51.3200 hc       483 PP       0.063200
   4346 HB2        41.0400   72.1800   50.0500 hc       483 PP       0.063200
   4347 HB3        40.3600   72.1000   51.7600 hc       483 PP       0.063200
   4348 C2         41.4400   69.4400   50.7800 c3       484 PP      -0.006100
   4349 C1         39.9400   69.1100   51.1300 c3       484 PP       0.076800
   4350 CB         39.0200   69.8700   50.2400 c3       484 PP      -0.265900
   4351 H21        41.5800   69.4700   49.6900 hc       484 PP       0.001900
   4352 H22        42.0400   68.5800   51.0900 hc       484 PP       0.001900
   4353 H1         39.8800   69.3400   52.2000 hc       484 PP       0.001800
   4354 HB1        39.2700   69.6400   49.2000 hc       484 PP       0.063200
   4355 HB2        37.9400   69.7500   50.4300 hc       484 PP       0.063200
   4356 HB3        39.0600   70.9600   50.3700 hc       484 PP       0.063200
   4357 C2         39.6300   67.5600   50.9800 c3       485 PP      -0.006100
   4358 C1         38.1200   67.1600   51.3200 c3       485 PP       0.076800
   4359 CB         37.6900   65.6900   50.7700 c3       485 PP      -0.265900
   4360 H21        39.8500   67.2300   49.9600 hc       485 PP       0.001900
   4361 H22        40.2700   67.0700   51.7200 hc       485 PP       0.001900
   4362 H1         37.5400   67.8200   50.6700 hc       485 PP       0.001800
   4363 HB1        37.9200   65.3500   49.7500 hc       485 PP       0.063200
   4364 HB2        37.9900   64.9800   51.5500 hc       485 PP       0.063200
   4365 HB3        36.6000   65.6500   50.8800 hc       485 PP       0.063200
   4366 C2         37.7800   67.3300   52.7700 c3       486 PP      -0.006100
   4367 C1         36.8600   68.5000   53.1400 c3       486 PP       0.076800
   4368 CB         35.4000   68.2200   52.6600 c3       486 PP      -0.265900
   4369 H21        37.3100   66.3900   53.0900 hc       486 PP       0.001900
   4370 H22        38.7000   67.4500   53.3600 hc       486 PP       0.001900
   4371 H1         37.2500   69.3600   52.5700 hc       486 PP       0.001800
   4372 HB1        34.9100   67.2700   52.9200 hc       486 PP       0.063200
   4373 HB2        34.7500   69.0900   52.8400 hc       486 PP       0.063200
   4374 HB3        35.4900   68.1700   51.5700 hc       486 PP       0.063200
   4375 C2         36.9000   68.9100   54.6600 c3       487 PP      -0.006100
   4376 C1         37.7400   70.2000   54.9000 c3       487 PP       0.076800
   4377 CB         37.1200   71.4700   54.2600 c3       487 PP      -0.265900
   4378 H21        35.8900   68.9700   55.0700 hc       487 PP       0.001900
   4379 H22        37.4400   68.1200   55.1900 hc       487 PP       0.001900
   4380 H1         38.7300   70.0400   54.4500 hc       487 PP       0.001800
   4381 HB1        36.2900   71.1100   53.6300 hc       487 PP       0.063200
   4382 HB2        36.7100   72.2200   54.9500 hc       487 PP       0.063200
   4383 HB3        37.7700   71.9600   53.5200 hc       487 PP       0.063200
   4384 C2         38.0400   70.4000   56.3900 c3       488 PP      -0.006100
   4385 C1         38.7100   71.7400   56.8000 c3       488 PP       0.076800
   4386 CB         38.7200   71.6000   58.3800 c3       488 PP      -0.265900
   4387 H21        37.0600   70.3300   56.8800 hc       488 PP       0.001900
   4388 H22        38.4800   69.4600   56.7500 hc       488 PP       0.001900
   4389 H1         38.1200   72.6500   56.6900 hc       488 PP       0.001800
   4390 HB1        39.3300   70.7300   58.6400 hc       488 PP       0.063200
   4391 HB2        39.1100   72.4900   58.8900 hc       488 PP       0.063200
   4392 HB3        37.7100   71.2800   58.6800 hc       488 PP       0.063200
   4393 C2         40.0800   71.9200   56.1200 c3       489 PP      -0.006100
   4394 C1         40.7900   73.2900   56.4900 c3       489 PP       0.076800
   4395 CB         42.3300   73.2800   56.1000 c3       489 PP      -0.265900
   4396 H21        40.6700   71.1400   56.6200 hc       489 PP       0.001900
   4397 H22        40.0700   71.7200   55.0400 hc       489 PP       0.001900
   4398 H1         40.7000   73.3400   57.5900 hc       489 PP       0.001800
   4399 HB1        42.2400   72.8500   55.1000 hc       489 PP       0.063200
   4400 HB2        42.8300   74.2400   55.9600 hc       489 PP       0.063200
   4401 HB3        42.9100   72.6700   56.8000 hc       489 PP       0.063200
   4402 C2         40.1000   74.5500   55.7400 c3       490 PP      -0.006100
   4403 C1         40.2100   75.8800   56.5400 c3       490 PP       0.076800
   4404 CB         41.6400   76.4300   56.5500 c3       490 PP      -0.265900
   4405 H21        40.5500   74.6200   54.7500 hc       490 PP       0.001900
   4406 H22        39.0300   74.3800   55.5400 hc       490 PP       0.001900
   4407 H1         39.8500   75.6600   57.5500 hc       490 PP       0.001800
   4408 HB1        42.2100   76.1100   57.4300 hc       490 PP       0.063200
   4409 HB2        42.1800   76.2000   55.6300 hc       490 PP       0.063200
   4410 HB3        41.6400   77.5200   56.7000 hc       490 PP       0.063200
   4411 C2         39.1700   76.8900   55.9900 c3       491 PP      -0.006100
   4412 C1         38.9400   78.3200   56.6200 c3       491 PP       0.076800
   4413 CB         37.8400   78.9800   55.9100 c3       491 PP      -0.265900
   4414 H21        39.3800   77.0700   54.9300 hc       491 PP       0.001900
   4415 H22        38.2000   76.3700   55.9800 hc       491 PP       0.001900
   4416 H1         39.8800   78.8600   56.4700 hc       491 PP       0.001800
   4417 HB1        37.0300   78.2600   55.7200 hc       491 PP       0.063200
   4418 HB2        37.3100   79.7400   56.4900 hc       491 PP       0.063200
   4419 HB3        38.1900   79.6100   55.0800 hc       491 PP       0.063200
   4420 C2         38.5300   78.3000   58.1900 c3       492 PP      -0.006100
   4421 C1         38.8200   79.5800   59.0200 c3       492 PP       0.076800
   4422 CB         37.9100   79.6500   60.3200 c3       492 PP      -0.265900
   4423 H21        37.4700   78.0500   58.2800 hc       492 PP       0.001900
   4424 H22        39.0000   77.4600   58.7200 hc       492 PP       0.001900
   4425 H1         38.5500   80.4700   58.4200 hc       492 PP       0.001800
   4426 HB1        36.8400   79.5800   60.0800 hc       492 PP       0.063200
   4427 HB2        38.1000   78.7900   60.9700 hc       492 PP       0.063200
   4428 HB3        38.0300   80.6400   60.7700 hc       492 PP       0.063200
   4429 C2         40.3300   -0.3400   59.3900 c3       493 PP      -0.006100
   4430 C1         40.8200    1.0600   59.9200 c3       493 PP       0.076800
   4431 CB         42.1800    1.1100   60.6800 c3       493 PP      -0.265900
   4432 H21        40.5500   -1.1400   60.1200 hc       493 PP       0.001900
   4433 H22        40.8900   -0.5000   58.4600 hc       493 PP       0.001900
   4434 H1         40.2000    1.4100   60.7500 hc       493 PP       0.001800
   4435 HB1        43.0600    1.1600   60.0300 hc       493 PP       0.063200
   4436 HB2        42.1400    1.9000   61.4300 hc       493 PP       0.063200
   4437 HB3        42.2600    0.1800   61.2500 hc       493 PP       0.063200
   4438 C2         40.6600    2.2700   58.9600 c3       494 PP      -0.006100
   4439 C1         40.8100    3.7000   59.5200 c3       494 PP       0.076800
   4440 CB         42.0600    4.4000   58.9400 c3       494 PP      -0.265900
   4441 H21        41.4100    2.1800   58.1600 hc       494 PP       0.001900
   4442 H22        39.7700    2.2100   58.3200 hc       494 PP       0.001900
   4443 H1         41.0600    3.5000   60.5700 hc       494 PP       0.001800
   4444 HB1        42.9400    3.8000   59.2100 hc       494 PP       0.063200
   4445 HB2        42.0200    4.5100   57.8500 hc       494 PP       0.063200
   4446 HB3        42.1500    5.4200   59.3400 hc       494 PP       0.063200
   4447 C2         39.6100    4.5900   59.3100 c3       495 PP      -0.006100
   4448 C1         38.1400    4.1200   59.6900 c3       495 PP       0.076800
   4449 CB         38.0900    4.2100   61.2700 c3       495 PP      -0.265900
   4450 H21        39.8900    5.5300   59.8000 hc       495 PP       0.001900
   4451 H22        39.6300    4.7200   58.2200 hc       495 PP       0.001900
   4452 H1         37.9800    3.0900   59.3600 hc       495 PP       0.001800
   4453 HB1        37.3200    3.5600   61.6900 hc       495 PP       0.063200
   4454 HB2        39.0200    3.8200   61.7100 hc       495 PP       0.063200
   4455 HB3        37.8200    5.2400   61.5300 hc       495 PP       0.063200
   4456 C2         37.1200    5.1100   59.0600 c3       496 PP      -0.006100
   4457 C1         36.8500    4.9200   57.5300 c3       496 PP       0.076800
   4458 CB         36.3100    3.4600   57.2300 c3       496 PP      -0.265900
   4459 H21        36.1300    4.8900   59.4800 hc       496 PP       0.001900
   4460 H22        37.4200    6.1600   59.1500 hc       496 PP       0.001900
   4461 H1         37.7600    5.0000   56.9300 hc       496 PP       0.001800
   4462 HB1        35.3400    3.1900   57.6800 hc       496 PP       0.063200
   4463 HB2        36.1200    3.2000   56.1800 hc       496 PP       0.063200
   4464 HB3        36.9800    2.6900   57.6300 hc       496 PP       0.063200
   4465 C2         35.7500    5.9400   57.0600 c3       497 PP      -0.006100
   4466 C1         36.1700    7.4000   56.8100 c3       497 PP       0.076800
   4467 CB         36.9200    7.6500   55.5500 c3       497 PP      -0.265900
   4468 H21        35.3400    5.5800   56.1100 hc       497 PP       0.001900
   4469 H22        34.9900    6.0300   57.8400 hc       497 PP       0.001900
   4470 H1         36.9000    7.5400   57.6200 hc       497 PP       0.001800
   4471 HB1        36.2800    7.6000   54.6600 hc       497 PP       0.063200
   4472 HB2        37.3800    8.6500   55.5600 hc       497 PP       0.063200
   4473 HB3        37.7100    6.9000   55.4300 hc       497 PP       0.063200
   4474 C2         34.9200    8.3300   56.9300 c3       498 PP      -0.006100
   4475 C1         34.8200    8.9600   58.3300 c3       498 PP       0.076800
   4476 CB         35.4300   10.4000   58.3400 c3       498 PP      -0.265900
   4477 H21        34.8900    9.1700   56.2300 hc       498 PP       0.001900
   4478 H22        33.9800    7.7900   56.7500 hc       498 PP       0.001900
   4479 H1         35.4000    8.2900   58.9800 hc       498 PP       0.001800
   4480 HB1        35.3300   10.8400   59.3300 hc       498 PP       0.063200
   4481 HB2        36.4800   10.3600   58.0300 hc       498 PP       0.063200
   4482 HB3        34.8000   10.9200   57.6100 hc       498 PP       0.063200
   4483 C2         33.4400    9.0600   59.0500 c3       499 PP      -0.006100
   4484 C1         32.9100    7.6900   59.5500 c3       499 PP       0.076800
   4485 CB         33.8800    6.9100   60.5600 c3       499 PP      -0.265900
   4486 H21        33.4100    9.6600   59.9700 hc       499 PP       0.001900
   4487 H22        32.7100    9.4500   58.3300 hc       499 PP       0.001900
   4488 H1         32.8200    6.9400   58.7600 hc       499 PP       0.001800
   4489 HB1        34.3100    7.4600   61.4100 hc       499 PP       0.063200
   4490 HB2        33.4700    5.9600   60.9100 hc       499 PP       0.063200
   4491 HB3        34.7500    6.4900   60.0400 hc       499 PP       0.063200
   4492 C2         31.4700    7.8500   60.2000 c3       500 PP      -0.006100
   4493 C1         30.3500    8.4400   59.2800 c3       500 PP       0.076800
   4494 CB         30.0000    7.5500   58.0500 c3       500 PP      -0.265900
   4495 H21        31.2200    6.8700   60.6300 hc       500 PP       0.001900
   4496 H22        31.6000    8.4100   61.1300 hc       500 PP       0.001900
   4497 H1         30.6700    9.3900   58.8400 hc       500 PP       0.001800
   4498 HB1        29.9400    6.4600   58.1200 hc       500 PP       0.063200
   4499 HB2        29.0400    7.8700   57.6300 hc       500 PP       0.063200
   4500 HB3        30.7700    7.7000   57.2800 hc       500 PP       0.063200
   4501 C2         29.1100    8.7500   60.1600 c3       501 PP      -0.006100
   4502 C1         29.2400    9.4500   61.5300 c3       501 PP       0.076800
   4503 CB         30.0100   10.8700   61.4500 c3       501 PP      -0.265900
   4504 H21        28.5200    9.3400   59.4600 hc       501 PP       0.001900
   4505 H22        28.5700    7.8000   60.2600 hc       501 PP       0.001900
   4506 H1         29.7100    8.7700   62.2500 hc       501 PP       0.001800
   4507 HB1        30.8100   10.6700   60.7300 hc       501 PP       0.063200
   4508 HB2        29.3700   11.6200   60.9600 hc       501 PP       0.063200
   4509 HB3        30.3800   11.1800   62.4400 hc       501 PP       0.063200
   4510 C2         27.7400    9.6300   62.0200 c3       502 PP      -0.006100
   4511 C1         27.6300   10.1700   63.4700 c3       502 PP       0.076800
   4512 CB         26.1600   10.5300   63.6600 c3       502 PP      -0.265900
   4513 H21        27.1600   10.2300   61.3000 hc       502 PP       0.001900
   4514 H22        27.3300    8.6200   61.9400 hc       502 PP       0.001900
   4515 H1         28.2900   11.0400   63.4700 hc       502 PP       0.001800
   4516 HB1        25.7800   11.2100   62.8800 hc       502 PP       0.063200
   4517 HB2        25.5000    9.6600   63.7300 hc       502 PP       0.063200
   4518 HB3        26.0200   11.1800   64.5400 hc       502 PP       0.063200
   4519 C2         28.1800    9.3000   64.5500 c3       503 PP      -0.006100
   4520 C1         28.4300   10.0200   65.9000 c3       503 PP       0.076800
   4521 CB         27.3800    9.5900   66.9300 c3       503 PP      -0.265900
   4522 H21        27.5700    8.4000   64.6900 hc       503 PP       0.001900
   4523 H22        29.1500    8.8700   64.2700 hc       503 PP       0.001900
   4524 H1         28.3300   11.0900   65.7000 hc       503 PP       0.001800
   4525 HB1        27.5000   10.2000   67.8400 hc       503 PP       0.063200
   4526 HB2        26.3800    9.8600   66.5700 hc       503 PP       0.063200
   4527 HB3        27.5200    8.5900   67.3500 hc       503 PP       0.063200
   4528 C2         29.8600    9.7800   66.4800 c3       504 PP      -0.006100
   4529 C1         31.0100   10.6400   65.8700 c3       504 PP       0.076800
   4530 CB         30.6700   12.1300   66.1800 c3       504 PP      -0.265900
   4531 H21        29.9500    9.9300   67.5700 hc       504 PP       0.001900
   4532 H22        30.1200    8.7200   66.4600 hc       504 PP       0.001900
   4533 H1         30.8000   10.4900   64.8000 hc       504 PP       0.001800
   4534 HB1        29.8800   12.5700   65.5600 hc       504 PP       0.063200
   4535 HB2        30.5100   12.1600   67.2700 hc       504 PP       0.063200
   4536 HB3        31.5600   12.7300   65.9300 hc       504 PP       0.063200
   4537 C2         32.4200   10.1300   66.3600 c3       505 PP      -0.006100
   4538 C1         33.0400    8.8400   65.6200 c3       505 PP       0.076800
   4539 CB         33.0700    8.9800   64.0600 c3       505 PP      -0.265900
   4540 H21        33.1400   10.9500   66.4300 hc       505 PP       0.001900
   4541 H22        32.3800    9.7700   67.4000 hc       505 PP       0.001900
   4542 H1         32.3700    8.0400   65.9400 hc       505 PP       0.001800
   4543 HB1        33.3200    8.0400   63.5700 hc       505 PP       0.063200
   4544 HB2        32.1400    9.3600   63.6200 hc       505 PP       0.063200
   4545 HB3        33.8700    9.7100   63.8700 hc       505 PP       0.063200
   4546 C2         34.4400    8.6000   66.1900 c3       506 PP      -0.006100
   4547 C1         34.9200    7.1600   65.9000 c3       506 PP       0.076800
   4548 CB         36.4300    7.0100   66.3100 c3       506 PP      -0.265900
   4549 H21        35.2200    9.3100   65.9000 hc       506 PP       0.001900
   4550 H22        34.3400    8.7000   67.2800 hc       506 PP       0.001900
   4551 H1         34.8600    7.0400   64.8200 hc       506 PP       0.001800
   4552 HB1        36.9600    6.1600   65.8700 hc       506 PP       0.063200
   4553 HB2        36.9500    7.9600   66.1400 hc       506 PP       0.063200
   4554 HB3        36.5300    6.8400   67.3900 hc       506 PP       0.063200
   4555 C2         34.0800    6.0900   66.5900 c3       507 PP      -0.006100
   4556 C1         34.2500    4.6400   65.9100 c3       507 PP       0.076800
   4557 CB         35.1800    3.7200   66.8800 c3       507 PP      -0.265900
   4558 H21        34.4200    6.0100   67.6300 hc       507 PP       0.001900
   4559 H22        33.0000    6.2600   66.6700 hc       507 PP       0.001900
   4560 H1         34.7500    4.6400   64.9300 hc       507 PP       0.001800
   4561 HB1        36.1000    4.2500   67.1200 hc       507 PP       0.063200
   4562 HB2        34.6900    3.5800   67.8500 hc       507 PP       0.063200
   4563 HB3        35.4200    2.8300   66.2700 hc       507 PP       0.063200
   4564 C2         32.8900    3.8900   65.7600 c3       508 PP      -0.006100
   4565 C1         32.1000    4.3800   64.4800 c3       508 PP       0.076800
   4566 CB         32.7400    3.7900   63.2100 c3       508 PP      -0.265900
   4567 H21        33.1400    2.8200   65.6800 hc       508 PP       0.001900
   4568 H22        32.2300    4.0300   66.6200 hc       508 PP       0.001900
   4569 H1         32.1000    5.4700   64.3900 hc       508 PP       0.001800
   4570 HB1        33.7500    4.1400   63.0000 hc       508 PP       0.063200
   4571 HB2        32.8200    2.6900   63.1900 hc       508 PP       0.063200
   4572 HB3        32.1200    4.1200   62.3700 hc       508 PP       0.063200
   4573 C2         30.6300    3.9800   64.5500 c3       509 PP      -0.006100
   4574 C1         29.7200    4.5700   65.6700 c3       509 PP       0.076800
   4575 CB         29.6800    6.1000   65.8800 c3       509 PP      -0.265900
   4576 H21        30.1600    4.4800   63.6900 hc       509 PP       0.001900
   4577 H22        30.3900    2.9100   64.4900 hc       509 PP       0.001900
   4578 H1         30.1000    4.0800   66.5800 hc       509 PP       0.001800
   4579 HB1        30.7200    6.4400   66.0100 hc       509 PP       0.063200
   4580 HB2        29.1800    6.5900   65.0300 hc       509 PP       0.063200
   4581 HB3        29.1000    6.2700   66.7900 hc       509 PP       0.063200
   4582 C2         28.2900    4.0700   65.4400 c3       510 PP      -0.006100
   4583 C1         27.3000    4.4000   66.5500 c3       510 PP       0.076800
   4584 CB         25.9000    4.8500   66.1900 c3       510 PP      -0.265900
   4585 H21        28.3900    2.9800   65.3900 hc       510 PP       0.001900
   4586 H22        27.9300    4.5100   64.5000 hc       510 PP       0.001900
   4587 H1         27.2700    3.5400   67.2400 hc       510 PP       0.001800
   4588 HB1        25.4300    4.1200   65.5200 hc       510 PP       0.063200
   4589 HB2        25.2900    4.7900   67.1000 hc       510 PP       0.063200
   4590 HB3        25.8500    5.8800   65.8300 hc       510 PP       0.063200
   4591 C2         75.7800   75.0300   61.5400 c3       511 PP      -0.006100
   4592 C1         75.8400   76.4100   60.8600 c3       511 PP       0.076800
   4593 CB         74.5000   77.1000   61.0000 c3       511 PP      -0.265900
   4594 H21        74.9000   74.4200   61.3200 hc       511 PP       0.001900
   4595 H22        76.7100   74.5100   61.2800 hc       511 PP       0.001900
   4596 H1         75.9100   76.4200   59.7600 hc       511 PP       0.001800
   4597 HB1        74.4800   78.0300   60.4300 hc       511 PP       0.063200
   4598 HB2        73.7200   76.5200   60.4900 hc       511 PP       0.063200
   4599 HB3        74.1800   77.4200   62.0000 hc       511 PP       0.063200
   4600 C2         77.1000   77.2300   61.4500 c3       512 PP      -0.006100
   4601 C1         77.2800   78.7400   61.1500 c3       512 PP       0.076800
   4602 CB         77.9900   79.4600   62.2700 c3       512 PP      -0.265900
   4603 H21        77.1500   77.0800   62.5400 hc       512 PP       0.001900
   4604 H22        78.0000   76.7200   61.1000 hc       512 PP       0.001900
   4605 H1         76.2800   79.1900   61.0900 hc       512 PP       0.001800
   4606 HB1        79.0400   79.1900   62.4600 hc       512 PP       0.063200
   4607 HB2        77.9800   80.5400   62.0600 hc       512 PP       0.063200
   4608 HB3        77.4200   79.3000   63.1900 hc       512 PP       0.063200
   4609 C2         77.9900   79.1100   59.8800 c3       513 PP      -0.006100
   4610 C1         77.3400   78.6700   58.5600 c3       513 PP       0.076800
   4611 CB         76.0000   79.4700   58.3400 c3       513 PP      -0.265900
   4612 H21        78.0500   80.2000   59.7900 hc       513 PP       0.001900
   4613 H22        79.0200   78.7400   59.8000 hc       513 PP       0.001900
   4614 H1         77.2300   77.5800   58.5100 hc       513 PP       0.001800
   4615 HB1        75.1800   79.1900   59.0100 hc       513 PP       0.063200
   4616 HB2        76.0700   80.5500   58.5400 hc       513 PP       0.063200
   4617 HB3        75.5600   79.3100   57.3400 hc       513 PP       0.063200
   4618 C2         78.3000   79.0200   57.3200 c3       514 PP      -0.006100
   4619 C1         79.4900   78.1100   57.0500 c3       514 PP       0.076800
   4620 CB         79.4100   76.7200   57.7500 c3       514 PP      -0.265900
   4621 H21        77.7300   79.1300   56.3900 hc       514 PP       0.001900
   4622 H22        78.5200   80.0800   57.4800 hc       514 PP       0.001900
   4623 H1         80.3900   78.5800   57.4600 hc       514 PP       0.001800
   4624 HB1        79.3300   76.7600   58.8400 hc       514 PP       0.063200
   4625 HB2        78.5000   76.2200   57.3800 hc       514 PP       0.063200
   4626 HB3        80.2600   76.0500   57.5400 hc       514 PP       0.063200
   4627 C2         -0.3300   77.8300   55.4500 c3       515 PP      -0.006100
   4628 C1          0.0500   79.1400   54.6100 c3       515 PP       0.076800
   4629 CB          1.5600   79.3500   54.7000 c3       515 PP      -0.265900
   4630 H21         0.3100   77.0000   55.1500 hc       515 PP       0.001900
   4631 H22        -1.2800   77.3900   55.1200 hc       515 PP       0.001900
   4632 H1         -0.4000   79.9800   55.1500 hc       515 PP       0.001800
   4633 HB1         1.9100   79.2700   55.7400 hc       515 PP       0.063200
   4634 HB2         2.0300   78.5500   54.1200 hc       515 PP       0.063200
   4635 HB3         1.7400   80.3500   54.3000 hc       515 PP       0.063200
   4636 C2         79.6300   79.1100   53.1600 c3       516 PP      -0.006100
   4637 C1         79.7700   80.5300   52.3800 c3       516 PP       0.076800
   4638 CB         79.4700   80.3200   50.8900 c3       516 PP      -0.265900
   4639 H21        80.2200   78.3800   52.5900 hc       516 PP       0.001900
   4640 H22        78.5900   78.7800   53.0100 hc       516 PP       0.001900
   4641 H1         80.8000   80.8900   52.4100 hc       516 PP       0.001800
   4642 HB1        80.2500   79.6800   50.4700 hc       516 PP       0.063200
   4643 HB2        78.4900   79.8800   50.6700 hc       516 PP       0.063200
   4644 HB3        79.5200   81.3100   50.4100 hc       516 PP       0.063200
   4645 C2         78.9500    1.7300   53.0000 c3       517 PP      -0.006100
   4646 C1         77.3900    1.5400   52.8800 c3       517 PP       0.076800
   4647 CB         76.7000    1.2200   54.3100 c3       517 PP      -0.265900
   4648 H21        79.3200    1.8800   54.0200 hc       517 PP       0.001900
   4649 H22        79.1300    2.6900   52.5100 hc       517 PP       0.001900
   4650 H1         77.1300    0.6500   52.3000 hc       517 PP       0.001800
   4651 HB1        75.6900    0.7900   54.3900 hc       517 PP       0.063200
   4652 HB2        77.3900    0.5200   54.7900 hc       517 PP       0.063200
   4653 HB3        76.6900    2.1200   54.9300 hc       517 PP       0.063200
   4654 C2         76.7100    2.8200   52.3000 c3       518 PP      -0.006100
   4655 C1         76.9200    3.1100   50.8200 c3       518 PP       0.076800
   4656 CB         75.7200    2.4600   49.9700 c3       518 PP      -0.265900
   4657 H21        75.6600    2.8400   52.5900 hc       518 PP       0.001900
   4658 H22        77.0400    3.6900   52.8700 hc       518 PP       0.001900
   4659 H1         77.7400    2.5500   50.3400 hc       518 PP       0.001800
   4660 HB1        74.7300    2.9200   50.0000 hc       518 PP       0.063200
   4661 HB2        75.9700    2.4200   48.9000 hc       518 PP       0.063200
   4662 HB3        75.6200    1.3900   50.2100 hc       518 PP       0.063200
   4663 C2         76.9800    4.7200   50.5200 c3       519 PP      -0.006100
   4664 C1         78.2700    5.5200   50.9000 c3       519 PP       0.076800
   4665 CB         79.5600    4.9300   50.3100 c3       519 PP      -0.265900
   4666 H21        76.7500    4.9700   49.4800 hc       519 PP       0.001900
   4667 H22        76.1600    5.1800   51.0800 hc       519 PP       0.001900
   4668 H1         78.4100    5.5300   51.9900 hc       519 PP       0.001800
   4669 HB1        79.5600    5.1000   49.2300 hc       519 PP       0.063200
   4670 HB2        80.4600    5.3300   50.7800 hc       519 PP       0.063200
   4671 HB3        79.6100    3.8400   50.4200 hc       519 PP       0.063200
   4672 C2         78.1000    7.0000   50.3800 c3       520 PP      -0.006100
   4673 C1         76.9900    7.9000   50.9700 c3       520 PP       0.076800
   4674 CB         77.4700    9.3400   51.3700 c3       520 PP      -0.265900
   4675 H21        79.0400    7.5600   50.4900 hc       520 PP       0.001900
   4676 H22        78.0400    6.8700   49.2900 hc       520 PP       0.001900
   4677 H1         76.7000    7.4400   51.9300 hc       520 PP       0.001800
   4678 HB1        78.4500    9.2700   51.8600 hc       520 PP       0.063200
   4679 HB2        77.8500    9.7700   50.4300 hc       520 PP       0.063200
   4680 HB3        76.7900    9.9800   51.9400 hc       520 PP       0.063200
   4681 C2         75.7600    7.7800   50.0900 c3       521 PP      -0.006100
   4682 C1         74.4200    7.7400   50.8900 c3       521 PP       0.076800
   4683 CB         73.7100    9.0000   50.7300 c3       521 PP      -0.265900
   4684 H21        75.6700    8.6000   49.3600 hc       521 PP       0.001900
   4685 H22        75.7900    6.9100   49.4200 hc       521 PP       0.001900
   4686 H1         74.6300    7.6800   51.9700 hc       521 PP       0.001800
   4687 HB1        72.9300    9.1000   51.5000 hc       521 PP       0.063200
   4688 HB2        74.4200    9.8200   50.8700 hc       521 PP       0.063200
   4689 HB3        73.2300    9.1200   49.7500 hc       521 PP       0.063200
   4690 C2         73.4900    6.5200   50.3800 c3       522 PP      -0.006100
   4691 C1         72.5100    5.9500   51.4300 c3       522 PP       0.076800
   4692 CB         71.7500    4.7100   50.8000 c3       522 PP      -0.265900
   4693 H21        72.9600    6.8800   49.5000 hc       522 PP       0.001900
   4694 H22        74.0700    5.6600   50.0100 hc       522 PP       0.001900
   4695 H1         71.7300    6.7200   51.5000 hc       522 PP       0.001800
   4696 HB1        71.0200    4.3400   51.5300 hc       522 PP       0.063200
   4697 HB2        71.3000    4.9400   49.8200 hc       522 PP       0.063200
   4698 HB3        72.5000    3.9300   50.6000 hc       522 PP       0.063200
   4699 C2         73.2600    5.6500   52.7500 c3       523 PP      -0.006100
   4700 C1         72.9100    6.6300   53.8600 c3       523 PP       0.076800
   4701 CB         71.3300    6.6300   54.1400 c3       523 PP      -0.265900
   4702 H21        72.9300    4.6600   53.0800 hc       523 PP       0.001900
   4703 H22        74.3600    5.6800   52.7200 hc       523 PP       0.001900
   4704 H1         73.3500    7.5700   53.5100 hc       523 PP       0.001800
   4705 HB1        70.7100    7.2500   53.4900 hc       523 PP       0.063200
   4706 HB2        70.9800    5.6000   54.2900 hc       523 PP       0.063200
   4707 HB3        71.2300    7.2000   55.0700 hc       523 PP       0.063200
   4708 C2         73.7600    6.2800   55.1700 c3       524 PP      -0.006100
   4709 C1         75.3400    6.3900   55.1900 c3       524 PP       0.076800
   4710 CB         75.8900    7.8400   54.8900 c3       524 PP      -0.265900
   4711 H21        73.4500    6.9300   55.9900 hc       524 PP       0.001900
   4712 H22        73.5400    5.2400   55.4200 hc       524 PP       0.001900
   4713 H1         75.8100    5.7600   54.4200 hc       524 PP       0.001800
   4714 HB1        75.6400    8.1900   53.8800 hc       524 PP       0.063200
   4715 HB2        75.6800    8.5600   55.7000 hc       524 PP       0.063200
   4716 HB3        76.9800    7.8100   54.8900 hc       524 PP       0.063200
   4717 C2         75.9000    5.9400   56.5500 c3       525 PP      -0.006100
   4718 C1         76.4800    4.5400   56.5700 c3       525 PP       0.076800
   4719 CB         77.7700    4.4000   55.8800 c3       525 PP      -0.265900
   4720 H21        76.6600    6.6500   56.8900 hc       525 PP       0.001900
   4721 H22        75.0900    6.1100   57.2700 hc       525 PP       0.001900
   4722 H1         75.7500    3.8900   56.0700 hc       525 PP       0.001800
   4723 HB1        77.8400    4.9100   54.9100 hc       525 PP       0.063200
   4724 HB2        78.5200    4.9400   56.4700 hc       525 PP       0.063200
   4725 HB3        78.1300    3.3900   55.6600 hc       525 PP       0.063200
   4726 C2         76.5400    3.9100   58.0800 c3       526 PP      -0.006100
   4727 C1         75.2700    3.9400   59.0000 c3       526 PP       0.076800
   4728 CB         74.2000    3.2200   58.2500 c3       526 PP      -0.265900
   4729 H21        76.7300    2.8300   58.0200 hc       526 PP       0.001900
   4730 H22        77.4000    4.3700   58.5800 hc       526 PP       0.001900
   4731 H1         75.0900    5.0200   59.0600 hc       526 PP       0.001800
   4732 HB1        73.3500    2.9700   58.9000 hc       526 PP       0.063200
   4733 HB2        73.7900    3.8700   57.4700 hc       526 PP       0.063200
   4734 HB3        74.6500    2.3100   57.8300 hc       526 PP       0.063200
   4735 C2         75.6600    3.4100   60.4400 c3       527 PP      -0.006100
   4736 C1         74.7500    3.5700   61.7700 c3       527 PP       0.076800
   4737 CB         74.2500    5.0900   61.9700 c3       527 PP      -0.265900
   4738 H21        75.7200    2.3200   60.4000 hc       527 PP       0.001900
   4739 H22        76.5900    3.9200   60.7100 hc       527 PP       0.001900
   4740 H1         75.3300    3.2300   62.6300 hc       527 PP       0.001800
   4741 HB1        73.8600    5.5500   61.0600 hc       527 PP       0.063200
   4742 HB2        73.4000    5.1500   62.6600 hc       527 PP       0.063200
   4743 HB3        75.0400    5.7400   62.3700 hc       527 PP       0.063200
   4744 C2         73.5100    2.7000   61.7800 c3       528 PP      -0.006100
   4745 C1         73.5900    1.1000   61.7900 c3       528 PP       0.076800
   4746 CB         74.5100    0.5400   62.9400 c3       528 PP      -0.265900
   4747 H21        73.0300    3.0100   62.7100 hc       528 PP       0.001900
   4748 H22        72.8500    3.0300   60.9700 hc       528 PP       0.001900
   4749 H1         74.0300    0.7300   60.8600 hc       528 PP       0.001800
   4750 HB1        75.4900    1.0300   62.9700 hc       528 PP       0.063200
   4751 HB2        74.0100    0.7100   63.9100 hc       528 PP       0.063200
   4752 HB3        74.6900   -0.5200   62.7300 hc       528 PP       0.063200
   4753 C2         72.1300    0.5300   61.8600 c3       529 PP      -0.006100
   4754 C1         71.4300    0.4200   60.5000 c3       529 PP       0.076800
   4755 CB         72.0500   -0.7400   59.7500 c3       529 PP      -0.265900
   4756 H21        72.2100   -0.3700   62.4800 hc       529 PP       0.001900
   4757 H22        71.5300    1.1700   62.5200 hc       529 PP       0.001900
   4758 H1         71.5900    1.3300   59.9100 hc       529 PP       0.001800
   4759 HB1        73.0900   -0.5200   59.5000 hc       529 PP       0.063200
   4760 HB2        72.0600   -1.7000   60.2800 hc       529 PP       0.063200
   4761 HB3        71.4900   -0.9800   58.8400 hc       529 PP       0.063200
   4762 C2         69.8600    0.3400   60.4800 c3       530 PP      -0.006100
   4763 C1         69.0800    1.7000   60.1300 c3       530 PP       0.076800
   4764 CB         67.5300    1.5400   60.1800 c3       530 PP      -0.265900
   4765 H21        69.5800   -0.3700   59.6900 hc       530 PP       0.001900
   4766 H22        69.5700   -0.0100   61.4800 hc       530 PP       0.001900
   4767 H1         69.4200    1.9400   59.1100 hc       530 PP       0.001800
   4768 HB1        66.9500    2.4700   60.2900 hc       530 PP       0.063200
   4769 HB2        67.1700    1.0000   59.3000 hc       530 PP       0.063200
   4770 HB3        67.3100    0.9600   61.0900 hc       530 PP       0.063200
   4771 C2         69.4200    2.9200   61.0700 c3       531 PP      -0.006100
   4772 C1         69.1300    4.3000   60.4600 c3       531 PP       0.076800
   4773 CB         68.8000    5.3500   61.4800 c3       531 PP      -0.265900
   4774 H21        68.8300    2.7400   61.9700 hc       531 PP       0.001900
   4775 H22        70.4700    2.8400   61.3800 hc       531 PP       0.001900
   4776 H1         68.2900    4.1300   59.7700 hc       531 PP       0.001800
   4777 HB1        68.6200    6.3800   61.1300 hc       531 PP       0.063200
   4778 HB2        68.0000    5.0600   62.1600 hc       531 PP       0.063200
   4779 HB3        69.6400    5.2700   62.1700 hc       531 PP       0.063200
   4780 C2         70.4100    4.7000   59.7200 c3       532 PP      -0.006100
   4781 C1         70.2300    6.0000   58.9100 c3       532 PP       0.076800
   4782 CB         71.5100    6.2400   58.0900 c3       532 PP      -0.265900
   4783 H21        71.2900    4.7800   60.3600 hc       532 PP       0.001900
   4784 H22        70.6000    3.8700   59.0300 hc       532 PP       0.001900
   4785 H1         70.2700    6.8300   59.6300 hc       532 PP       0.001800
   4786 HB1        71.5500    7.1700   57.5100 hc       532 PP       0.063200
   4787 HB2        72.4700    6.2100   58.6200 hc       532 PP       0.063200
   4788 HB3        71.6400    5.3600   57.4400 hc       532 PP       0.063200
   4789 C2         68.9800    6.0300   57.9400 c3       533 PP      -0.006100
   4790 C1         68.6600    7.4000   57.2600 c3       533 PP       0.076800
   4791 CB         68.0500    7.1800   55.8600 c3       533 PP      -0.265900
   4792 H21        69.2800    5.2900   57.1900 hc       533 PP       0.001900
   4793 H22        67.9700    5.8200   58.3200 hc       533 PP       0.001900
   4794 H1         69.5400    8.0300   57.0600 hc       533 PP       0.001800
   4795 HB1        68.7700    6.6300   55.2500 hc       533 PP       0.063200
   4796 HB2        67.0500    6.7400   55.9200 hc       533 PP       0.063200
   4797 HB3        67.8500    8.1500   55.3800 hc       533 PP       0.063200
   4798 C2         67.7300    8.4100   58.1500 c3       534 PP      -0.006100
   4799 C1         68.4700    9.1300   59.3200 c3       534 PP       0.076800
   4800 CB         69.8600    9.7700   58.8300 c3       534 PP      -0.265900
   4801 H21        67.2700    9.1500   57.4800 hc       534 PP       0.001900
   4802 H22        66.8700    7.9600   58.6700 hc       534 PP       0.001900
   4803 H1         68.7300    8.4100   60.1100 hc       534 PP       0.001800
   4804 HB1        69.7500   10.4200   57.9500 hc       534 PP       0.063200
   4805 HB2        70.2000   10.4000   59.6600 hc       534 PP       0.063200
   4806 HB3        70.6500    9.0200   58.6500 hc       534 PP       0.063200
   4807 C2         67.6300   10.1600   59.9800 c3       535 PP      -0.006100
   4808 C1         67.5200   10.1400   61.5700 c3       535 PP       0.076800
   4809 CB         66.7700   11.5300   62.0000 c3       535 PP      -0.265900
   4810 H21        67.9900   11.1500   59.6600 hc       535 PP       0.001900
   4811 H22        66.6000   10.0700   59.6200 hc       535 PP       0.001900
   4812 H1         68.5300   10.0500   61.9900 hc       535 PP       0.001800
   4813 HB1        67.4400   12.3700   62.2100 hc       535 PP       0.063200
   4814 HB2        66.1000   11.8600   61.2000 hc       535 PP       0.063200
   4815 HB3        66.1700   11.4300   62.9100 hc       535 PP       0.063200
   4816 C2         66.6900    8.8900   62.0400 c3       536 PP      -0.006100
   4817 C1         66.5700    8.5200   63.5200 c3       536 PP       0.076800
   4818 CB         65.6400    7.2700   63.6700 c3       536 PP      -0.265900
   4819 H21        65.6600    9.0700   61.7200 hc       536 PP       0.001900
   4820 H22        66.9500    7.9500   61.5400 hc       536 PP       0.001900
   4821 H1         66.0400    9.3500   64.0000 hc       536 PP       0.001800
   4822 HB1        65.6400    6.7100   62.7200 hc       536 PP       0.063200
   4823 HB2        65.9700    6.5600   64.4400 hc       536 PP       0.063200
   4824 HB3        64.6100    7.6400   63.7600 hc       536 PP       0.063200
   4825 C2         68.0000    8.2300   64.2800 c3       537 PP      -0.006100
   4826 C1         67.8300    8.2600   65.8500 c3       537 PP       0.076800
   4827 CB         68.3800    6.9900   66.5000 c3       537 PP      -0.265900
   4828 H21        68.6300    7.4100   63.9200 hc       537 PP       0.001900
   4829 H22        68.7100    9.0400   64.0900 hc       537 PP       0.001900
   4830 H1         66.7600    8.3100   66.0900 hc       537 PP       0.001800
   4831 HB1        67.9500    6.1000   66.0200 hc       537 PP       0.063200
   4832 HB2        69.4700    6.8200   66.5500 hc       537 PP       0.063200
   4833 HB3        68.0200    6.9200   67.5300 hc       537 PP       0.063200
   4834 C2         68.4800    9.5000   66.4800 c3       538 PP      -0.006100
   4835 C1         67.9200   10.8300   65.9800 c3       538 PP       0.076800
   4836 CB         66.4100   10.9800   66.4100 c3       538 PP      -0.265900
   4837 H21        68.5600    9.3900   67.5700 hc       538 PP       0.001900
   4838 H22        69.5300    9.4100   66.1900 hc       538 PP       0.001900
   4839 H1         67.9800   10.8500   64.8900 hc       538 PP       0.001800
   4840 HB1        66.0600   11.8200   65.7900 hc       538 PP       0.063200
   4841 HB2        65.7600   10.1800   66.0300 hc       538 PP       0.063200
   4842 HB3        66.2900   11.1900   67.4800 hc       538 PP       0.063200
   4843 C2         68.7600   12.0500   66.5700 c3       539 PP      -0.006100
   4844 C1         69.8200   12.7500   65.6400 c3       539 PP       0.076800
   4845 CB         69.1900   13.2900   64.2500 c3       539 PP      -0.265900
   4846 H21        68.0200   12.8200   66.8000 hc       539 PP       0.001900
   4847 H22        69.2400   11.6500   67.4700 hc       539 PP       0.001900
   4848 H1         70.5500   11.9600   65.4300 hc       539 PP       0.001800
   4849 HB1        69.7700   14.0700   63.7500 hc       539 PP       0.063200
   4850 HB2        69.1900   12.5200   63.4700 hc       539 PP       0.063200
   4851 HB3        68.1900   13.6700   64.4800 hc       539 PP       0.063200
   4852 C2         70.5500   13.8900   66.4800 c3       540 PP      -0.006100
   4853 C1         71.6600   14.6600   65.6800 c3       540 PP       0.076800
   4854 CB         72.4600   15.7300   66.4700 c3       540 PP      -0.265900
   4855 H21        71.0800   13.4700   67.3400 hc       540 PP       0.001900
   4856 H22        69.7900   14.5800   66.8800 hc       540 PP       0.001900
   4857 H1         72.4200   13.9600   65.3100 hc       540 PP       0.001800
   4858 HB1        72.8500   15.3600   67.4200 hc       540 PP       0.063200
   4859 HB2        73.2600   16.0100   65.7800 hc       540 PP       0.063200
   4860 HB3        71.8700   16.6300   66.7100 hc       540 PP       0.063200
   4861 C2         67.5400   66.0200   51.1500 c3       541 PP      -0.006100
   4862 C1         66.2000   65.2500   51.0800 c3       541 PP       0.076800
   4863 CB         66.3100   64.3100   49.9100 c3       541 PP      -0.265900
   4864 H21        68.3400   65.9500   50.4100 hc       541 PP       0.001900
   4865 H22        67.3200   67.0900   51.2200 hc       541 PP       0.001900
   4866 H1         65.4900   66.0700   50.9000 hc       541 PP       0.001800
   4867 HB1        66.3000   64.8900   48.9800 hc       541 PP       0.063200
   4868 HB2        67.1500   63.6100   49.8300 hc       541 PP       0.063200
   4869 HB3        65.4200   63.6800   49.8200 hc       541 PP       0.063200
   4870 C2         65.8600   64.5300   52.4500 c3       542 PP      -0.006100
   4871 C1         64.4400   63.9600   52.5300 c3       542 PP       0.076800
   4872 CB         64.3300   63.3700   53.9500 c3       542 PP      -0.265900
   4873 H21        66.5000   63.6700   52.6600 hc       542 PP       0.001900
   4874 H22        66.0600   65.2600   53.2500 hc       542 PP       0.001900
   4875 H1         64.3100   63.1400   51.8200 hc       542 PP       0.001800
   4876 HB1        65.2900   62.9400   54.2600 hc       542 PP       0.063200
   4877 HB2        63.9100   64.1500   54.6100 hc       542 PP       0.063200
   4878 HB3        63.6400   62.5200   53.9000 hc       542 PP       0.063200
   4879 C2         63.2400   64.9600   52.3200 c3       543 PP      -0.006100
   4880 C1         62.7400   64.9500   50.8700 c3       543 PP       0.076800
   4881 CB         62.0100   63.6200   50.4700 c3       543 PP      -0.265900
   4882 H21        62.3500   64.7500   52.9300 hc       543 PP       0.001900
   4883 H22        63.5300   65.9300   52.7400 hc       543 PP       0.001900
   4884 H1         63.5000   65.2000   50.1200 hc       543 PP       0.001800
   4885 HB1        61.4100   63.7200   49.5600 hc       543 PP       0.063200
   4886 HB2        62.8100   62.8900   50.2700 hc       543 PP       0.063200
   4887 HB3        61.3900   63.2600   51.3000 hc       543 PP       0.063200
   4888 C2         61.8300   66.1600   50.5600 c3       544 PP      -0.006100
   4889 C1         62.3900   67.6200   50.8800 c3       544 PP       0.076800
   4890 CB         63.4800   68.0300   49.9100 c3       544 PP      -0.265900
   4891 H21        61.5300   66.1400   49.5100 hc       544 PP       0.001900
   4892 H22        60.9000   65.9700   51.1200 hc       544 PP       0.001900
   4893 H1         62.8000   67.6000   51.9000 hc       544 PP       0.001800
   4894 HB1        63.3400   67.5900   48.9200 hc       544 PP       0.063200
   4895 HB2        63.6100   69.1200   49.8300 hc       544 PP       0.063200
   4896 HB3        64.4300   67.6300   50.2700 hc       544 PP       0.063200
   4897 C2         61.3700   68.6600   51.0100 c3       545 PP      -0.006100
   4898 C1         60.2900   68.5200   52.1300 c3       545 PP       0.076800
   4899 CB         60.9600   68.4700   53.5400 c3       545 PP      -0.265900
   4900 H21        61.9100   69.5900   51.2100 hc       545 PP       0.001900
   4901 H22        60.8800   68.7100   50.0300 hc       545 PP       0.001900
   4902 H1         59.7500   67.5700   52.0200 hc       545 PP       0.001800
   4903 HB1        60.2400   68.5400   54.3700 hc       545 PP       0.063200
   4904 HB2        61.5800   67.5700   53.5900 hc       545 PP       0.063200
   4905 HB3        61.6000   69.3600   53.5500 hc       545 PP       0.063200
   4906 C2         59.2400   69.7200   52.0100 c3       546 PP      -0.006100
   4907 C1         58.5200   69.8800   50.5800 c3       546 PP       0.076800
   4908 CB         57.9700   68.5500   49.9900 c3       546 PP      -0.265900
   4909 H21        58.5100   69.5000   52.8000 hc       546 PP       0.001900
   4910 H22        59.6800   70.6400   52.4400 hc       546 PP       0.001900
   4911 H1         59.2400   70.2700   49.8500 hc       546 PP       0.001800
   4912 HB1        57.4000   68.7200   49.0700 hc       546 PP       0.063200
   4913 HB2        58.8200   67.8900   49.7700 hc       546 PP       0.063200
   4914 HB3        57.4300   68.0500   50.8100 hc       546 PP       0.063200
   4915 C2         57.3000   70.8900   50.6500 c3       547 PP      -0.006100
   4916 C1         56.1200   70.5200   51.5800 c3       547 PP       0.076800
   4917 CB         56.1300   71.4000   52.8300 c3       547 PP      -0.265900
   4918 H21        57.6100   71.9200   50.8500 hc       547 PP       0.001900
   4919 H22        56.9400   70.8600   49.6100 hc       547 PP       0.001900
   4920 H1         56.2400   69.4800   51.9200 hc       547 PP       0.001800
   4921 HB1        55.7500   72.4000   52.6300 hc       547 PP       0.063200
   4922 HB2        55.4000   70.9400   53.5000 hc       547 PP       0.063200
   4923 HB3        57.0900   71.4900   53.3600 hc       547 PP       0.063200
   4924 C2         54.7700   70.7000   50.8400 c3       548 PP      -0.006100
   4925 C1         53.7300   69.5700   50.8400 c3       548 PP       0.076800
   4926 CB         54.3700   68.1900   50.5000 c3       548 PP      -0.265900
   4927 H21        54.2300   71.6300   51.0600 hc       548 PP       0.001900
   4928 H22        54.9400   70.9700   49.7900 hc       548 PP       0.001900
   4929 H1         53.0700   69.8500   50.0100 hc       548 PP       0.001800
   4930 HB1        53.5900   67.5900   50.0100 hc       548 PP       0.063200
   4931 HB2        55.1800   68.3300   49.7800 hc       548 PP       0.063200
   4932 HB3        54.6400   67.5600   51.3600 hc       548 PP       0.063200
   4933 C2         52.9200   69.5000   52.1500 c3       549 PP      -0.006100
   4934 C1         51.7300   68.5200   52.0800 c3       549 PP       0.076800
   4935 CB         51.2000   68.3500   53.5700 c3       549 PP      -0.265900
   4936 H21        53.5600   69.1100   52.9500 hc       549 PP       0.001900
   4937 H22        52.6800   70.5200   52.4700 hc       549 PP       0.001900
   4938 H1         52.0100   67.5400   51.6700 hc       549 PP       0.001800
   4939 HB1        50.6100   69.2200   53.8800 hc       549 PP       0.063200
   4940 HB2        50.4100   67.6000   53.7400 hc       549 PP       0.063200
   4941 HB3        51.9900   68.1400   54.2900 hc       549 PP       0.063200
   4942 C2         50.5300   68.9700   51.2400 c3       550 PP      -0.006100
   4943 C1         49.5600   67.8000   50.9300 c3       550 PP       0.076800
   4944 CB         48.3100   68.4500   50.2200 c3       550 PP      -0.265900
   4945 H21        50.0500   69.8400   51.7000 hc       550 PP       0.001900
   4946 H22        50.9700   69.4300   50.3500 hc       550 PP       0.001900
   4947 H1         49.1700   67.3600   51.8600 hc       550 PP       0.001800
   4948 HB1        47.7900   69.1000   50.9300 hc       550 PP       0.063200
   4949 HB2        48.6300   68.9900   49.3200 hc       550 PP       0.063200
   4950 HB3        47.5300   67.7100   50.0100 hc       550 PP       0.063200
   4951 C2         50.0900   66.6300   50.0000 c3       551 PP      -0.006100
   4952 C1         50.4500   65.3500   50.7500 c3       551 PP       0.076800
   4953 CB         49.2000   64.5000   50.9400 c3       551 PP      -0.265900
   4954 H21        49.3300   66.3600   49.2500 hc       551 PP       0.001900
   4955 H22        50.9100   67.0900   49.4300 hc       551 PP       0.001900
   4956 H1         50.7400   65.7300   51.7300 hc       551 PP       0.001800
   4957 HB1        49.5300   63.5000   51.2500 hc       551 PP       0.063200
   4958 HB2        48.5000   65.0300   51.5900 hc       551 PP       0.063200
   4959 HB3        48.6100   64.3800   50.0300 hc       551 PP       0.063200
   4960 C2         51.6200   64.4800   50.1300 c3       552 PP      -0.006100
   4961 C1         52.5100   63.6900   51.1800 c3       552 PP       0.076800
   4962 CB         53.3000   62.6000   50.4000 c3       552 PP      -0.265900
   4963 H21        51.2400   63.7900   49.3700 hc       552 PP       0.001900
   4964 H22        52.2800   65.1100   49.5300 hc       552 PP       0.001900
   4965 H1         51.7700   63.2600   51.8600 hc       552 PP       0.001800
   4966 HB1        53.6700   61.8000   51.0500 hc       552 PP       0.063200
   4967 HB2        52.6800   62.1700   49.6000 hc       552 PP       0.063200
   4968 HB3        54.1800   63.0900   49.9600 hc       552 PP       0.063200
   4969 C2         53.4300   64.6600   51.9300 c3       553 PP      -0.006100
   4970 C1         54.3400   64.1900   53.0100 c3       553 PP       0.076800
   4971 CB         55.1100   65.4900   53.5700 c3       553 PP      -0.265900
   4972 H21        54.1100   65.1100   51.2000 hc       553 PP       0.001900
   4973 H22        52.8800   65.5200   52.3300 hc       553 PP       0.001900
   4974 H1         54.9800   63.4200   52.5700 hc       553 PP       0.001800
   4975 HB1        54.4500   66.3700   53.5500 hc       553 PP       0.063200
   4976 HB2        55.4500   65.4900   54.6200 hc       553 PP       0.063200
   4977 HB3        55.9900   65.7300   52.9500 hc       553 PP       0.063200
   4978 C2         53.4700   63.5700   54.1800 c3       554 PP      -0.006100
   4979 C1         54.2500   62.7300   55.2100 c3       554 PP       0.076800
   4980 CB         53.5600   62.5200   56.6100 c3       554 PP      -0.265900
   4981 H21        52.9700   64.4000   54.7000 hc       554 PP       0.001900
   4982 H22        52.6400   62.9500   53.8000 hc       554 PP       0.001900
   4983 H1         55.2200   63.2500   55.3200 hc       554 PP       0.001800
   4984 HB1        53.3700   63.4900   57.0900 hc       554 PP       0.063200
   4985 HB2        52.5700   62.0600   56.5500 hc       554 PP       0.063200
   4986 HB3        54.1700   62.0600   57.4000 hc       554 PP       0.063200
   4987 C2         54.5500   61.3600   54.5900 c3       555 PP      -0.006100
   4988 C1         55.8300   60.7200   55.2300 c3       555 PP       0.076800
   4989 CB         55.8500   59.2000   54.9000 c3       555 PP      -0.265900
   4990 H21        53.6000   60.8100   54.5700 hc       555 PP       0.001900
   4991 H22        54.6400   61.4700   53.5100 hc       555 PP       0.001900
   4992 H1         55.7200   60.7600   56.3200 hc       555 PP       0.001800
   4993 HB1        56.4900   58.6900   55.6200 hc       555 PP       0.063200
   4994 HB2        54.8500   58.7600   54.9000 hc       555 PP       0.063200
   4995 HB3        56.2800   59.1700   53.8900 hc       555 PP       0.063200
   4996 C2         57.1700   61.4200   54.7700 c3       556 PP      -0.006100
   4997 C1         57.8200   62.2700   55.8700 c3       556 PP       0.076800
   4998 CB         58.5300   61.3000   56.8400 c3       556 PP      -0.265900
   4999 H21        57.8900   60.7700   54.2600 hc       556 PP       0.001900
   5000 H22        56.7400   62.0900   54.0100 hc       556 PP       0.001900
   5001 H1         57.0200   62.8100   56.4000 hc       556 PP       0.001800
   5002 HB1        57.8400   60.5300   57.2100 hc       556 PP       0.063200
   5003 HB2        59.3300   60.7000   56.3900 hc       556 PP       0.063200
   5004 HB3        58.8600   61.8900   57.7100 hc       556 PP       0.063200
   5005 C2         58.8500   63.3000   55.3800 c3       557 PP      -0.006100
   5006 C1         58.5400   64.2500   54.1600 c3       557 PP       0.076800
   5007 CB         58.9900   65.6800   54.4100 c3       557 PP      -0.265900
   5008 H21        59.0500   63.9200   56.2600 hc       557 PP       0.001900
   5009 H22        59.7600   62.7300   55.1800 hc       557 PP       0.001900
   5010 H1         57.4600   64.4000   54.0600 hc       557 PP       0.001800
   5011 HB1        58.6000   66.0100   55.3900 hc       557 PP       0.063200
   5012 HB2        60.0800   65.7500   54.3500 hc       557 PP       0.063200
   5013 HB3        58.5800   66.4000   53.6900 hc       557 PP       0.063200
   5014 C2         59.1400   63.6800   52.8100 c3       558 PP      -0.006100
   5015 C1         58.0900   63.4300   51.6100 c3       558 PP       0.076800
   5016 CB         57.9400   64.6900   50.7200 c3       558 PP      -0.265900
   5017 H21        59.8500   64.4500   52.5000 hc       558 PP       0.001900
   5018 H22        59.6400   62.7200   52.9900 hc       558 PP       0.001900
   5019 H1         57.1100   63.1800   52.0400 hc       558 PP       0.001800
   5020 HB1        57.0700   64.5500   50.0700 hc       558 PP       0.063200
   5021 HB2        57.7100   65.5600   51.3500 hc       558 PP       0.063200
   5022 HB3        58.8700   64.6800   50.1500 hc       558 PP       0.063200
   5023 C2         58.4900   62.2700   50.6800 c3       559 PP      -0.006100
   5024 C1         58.2000   60.8200   51.1600 c3       559 PP       0.076800
   5025 CB         56.6300   60.5700   51.1300 c3       559 PP      -0.265900
   5026 H21        57.9700   62.5000   49.7300 hc       559 PP       0.001900
   5027 H22        59.5600   62.3900   50.4800 hc       559 PP       0.001900
   5028 H1         58.5900   60.7300   52.1900 hc       559 PP       0.001800
   5029 HB1        56.1100   61.3500   51.7000 hc       559 PP       0.063200
   5030 HB2        56.2700   60.6700   50.0900 hc       559 PP       0.063200
   5031 HB3        56.3400   59.5600   51.4200 hc       559 PP       0.063200
   5032 C2         58.9200   59.7100   50.3000 c3       560 PP      -0.006100
   5033 C1         60.2900   59.1500   50.7500 c3       560 PP       0.076800
   5034 CB         60.4900   57.7200   50.2500 c3       560 PP      -0.265900
   5035 H21        58.2500   58.8400   50.3000 hc       560 PP       0.001900
   5036 H22        58.9800   60.0000   49.2400 hc       560 PP       0.001900
   5037 H1         60.3200   59.1900   51.8500 hc       560 PP       0.001800
   5038 HB1        60.3800   57.5600   49.1700 hc       560 PP       0.063200
   5039 HB2        61.4900   57.3300   50.4800 hc       560 PP       0.063200
   5040 HB3        59.8800   56.9900   50.7900 hc       560 PP       0.063200
   5041 C2         61.5400   59.9800   50.3200 c3       561 PP      -0.006100
   5042 C1         62.9800   59.4100   50.5700 c3       561 PP       0.076800
   5043 CB         64.0500   60.4500   49.9500 c3       561 PP      -0.265900
   5044 H21        61.4400   60.4500   49.3300 hc       561 PP       0.001900
   5045 H22        61.4200   60.8200   51.0100 hc       561 PP       0.001900
   5046 H1         63.2200   58.5100   49.9700 hc       561 PP       0.001800
   5047 HB1        65.0000   59.9500   49.7000 hc       561 PP       0.063200
   5048 HB2        63.7400   60.9700   49.0400 hc       561 PP       0.063200
   5049 HB3        64.3300   61.1900   50.7200 hc       561 PP       0.063200
   5050 C2         63.3300   59.1100   52.0200 c3       562 PP      -0.006100
   5051 C1         64.8200   58.5700   52.3000 c3       562 PP       0.076800
   5052 CB         65.4700   59.3000   53.5400 c3       562 PP      -0.265900
   5053 H21        63.2600   60.0600   52.5700 hc       562 PP       0.001900
   5054 H22        62.7000   58.4000   52.5500 hc       562 PP       0.001900
   5055 H1         65.4400   58.8500   51.4400 hc       562 PP       0.001800
   5056 HB1        65.1000   59.0900   54.5500 hc       562 PP       0.063200
   5057 HB2        66.5000   58.9200   53.6300 hc       562 PP       0.063200
   5058 HB3        65.2900   60.3700   53.4000 hc       562 PP       0.063200
   5059 C2         64.8200   56.9600   52.5500 c3       563 PP      -0.006100
   5060 C1         64.5800   56.0500   51.3100 c3       563 PP       0.076800
   5061 CB         65.7200   56.1700   50.1900 c3       563 PP      -0.265900
   5062 H21        65.7600   56.7000   53.0500 hc       563 PP       0.001900
   5063 H22        64.0200   56.8000   53.2800 hc       563 PP       0.001900
   5064 H1         63.6500   56.3700   50.8100 hc       563 PP       0.001800
   5065 HB1        65.7000   55.3800   49.4200 hc       563 PP       0.063200
   5066 HB2        65.5600   57.1500   49.7500 hc       563 PP       0.063200
   5067 HB3        66.7300   56.1700   50.6400 hc       563 PP       0.063200
   5068 C2         64.3600   54.5700   51.7300 c3       564 PP      -0.006100
   5069 C1         62.8500   54.1100   51.7900 c3       564 PP       0.076800
   5070 CB         61.9200   55.1900   52.4800 c3       564 PP      -0.265900
   5071 H21        64.7900   53.9000   50.9700 hc       564 PP       0.001900
   5072 H22        64.8700   54.3000   52.6600 hc       564 PP       0.001900
   5073 H1         62.8300   53.2900   52.5200 hc       564 PP       0.001800
   5074 HB1        61.9500   56.1900   52.0300 hc       564 PP       0.063200
   5075 HB2        60.8700   54.8700   52.4900 hc       564 PP       0.063200
   5076 HB3        62.1100   55.3200   53.5500 hc       564 PP       0.063200
   5077 C2         62.2800   53.8400   50.3300 c3       565 PP      -0.006100
   5078 C1         61.8900   52.3800   50.0500 c3       565 PP       0.076800
   5079 CB         63.0700   51.4600   50.3400 c3       565 PP      -0.265900
   5080 H21        61.4000   54.4900   50.1900 hc       565 PP       0.001900
   5081 H22        63.0100   54.2100   49.6000 hc       565 PP       0.001900
   5082 H1         61.5200   52.2000   49.0300 hc       565 PP       0.001800
   5083 HB1        63.4400   51.2400   51.3500 hc       565 PP       0.063200
   5084 HB2        62.7900   50.4900   49.9100 hc       565 PP       0.063200
   5085 HB3        63.9100   51.6500   49.6600 hc       565 PP       0.063200
   5086 C2         60.7000   51.9800   51.0200 c3       566 PP      -0.006100
   5087 C1         59.3800   52.5600   50.4000 c3       566 PP       0.076800
   5088 CB         58.6600   51.4200   49.5900 c3       566 PP      -0.265900
   5089 H21        60.6000   50.9100   51.2300 hc       566 PP       0.001900
   5090 H22        60.8600   52.3400   52.0500 hc       566 PP       0.001900
   5091 H1         59.6600   53.3400   49.6800 hc       566 PP       0.001800
   5092 HB1        58.4200   50.5900   50.2700 hc       566 PP       0.063200
   5093 HB2        57.7300   51.8300   49.1600 hc       566 PP       0.063200
   5094 HB3        59.2800   50.9700   48.8000 hc       566 PP       0.063200
   5095 C2         58.4100   53.1200   51.4300 c3       567 PP      -0.006100
   5096 C1         57.6700   54.4100   51.0400 c3       567 PP       0.076800
   5097 CB         56.9600   54.4400   49.6800 c3       567 PP      -0.265900
   5098 H21        57.6200   52.4100   51.6900 hc       567 PP       0.001900
   5099 H22        58.9300   53.2800   52.3800 hc       567 PP       0.001900
   5100 H1         58.4800   55.1400   50.9400 hc       567 PP       0.001800
   5101 HB1        56.5400   55.4300   49.4600 hc       567 PP       0.063200
   5102 HB2        57.5700   54.1400   48.8200 hc       567 PP       0.063200
   5103 HB3        56.0100   53.8900   49.6800 hc       567 PP       0.063200
   5104 C2         56.6500   55.0100   52.1100 c3       568 PP      -0.006100
   5105 C1         57.1800   55.3200   53.5200 c3       568 PP       0.076800
   5106 CB         58.1200   56.6300   53.6000 c3       568 PP      -0.265900
   5107 H21        56.2000   55.9400   51.7400 hc       568 PP       0.001900
   5108 H22        55.8800   54.2500   52.3200 hc       568 PP       0.001900
   5109 H1         57.8800   54.5100   53.7700 hc       568 PP       0.001800
   5110 HB1        59.0900   56.5500   53.1100 hc       568 PP       0.063200
   5111 HB2        57.6100   57.4200   53.0400 hc       568 PP       0.063200
   5112 HB3        58.3100   56.9000   54.6500 hc       568 PP       0.063200
   5113 C2         56.1100   55.2800   54.6100 c3       569 PP      -0.006100
   5114 C1         56.5200   54.9300   56.1100 c3       569 PP       0.076800
   5115 CB         56.6700   56.1900   57.0400 c3       569 PP      -0.265900
   5116 H21        55.6000   56.2500   54.6900 hc       569 PP       0.001900
   5117 H22        55.3200   54.5600   54.3800 hc       569 PP       0.001900
   5118 H1         57.5000   54.4500   56.0300 hc       569 PP       0.001800
   5119 HB1        55.7100   56.7100   57.1000 hc       569 PP       0.063200
   5120 HB2        56.9900   55.9700   58.0700 hc       569 PP       0.063200
   5121 HB3        57.3700   56.9300   56.6500 hc       569 PP       0.063200
   5122 C2         55.4900   53.9000   56.8100 c3       570 PP      -0.006100
   5123 C1         54.1200   54.6300   57.2500 c3       570 PP       0.076800
   5124 CB         52.9800   53.6800   57.5700 c3       570 PP      -0.265900
   5125 H21        55.9000   53.4900   57.7400 hc       570 PP       0.001900
   5126 H22        55.3800   53.0400   56.1400 hc       570 PP       0.001900
   5127 H1         53.7600   55.0800   56.3100 hc       570 PP       0.001800
   5128 HB1        52.5700   53.2300   56.6600 hc       570 PP       0.063200
   5129 HB2        53.4100   52.8200   58.0900 hc       570 PP       0.063200
   5130 HB3        52.1700   54.1300   58.1600 hc       570 PP       0.063200
   5131 C2         15.9000   48.9800   50.6700 c3       571 PP      -0.006100
   5132 C1         16.7700   50.2100   50.8700 c3       571 PP       0.076800
   5133 CB         18.1400   50.0100   50.2300 c3       571 PP      -0.265900
   5134 H21        15.5500   48.9500   49.6300 hc       571 PP       0.001900
   5135 H22        16.3600   48.0300   50.9700 hc       571 PP       0.001900
   5136 H1         16.8900   50.3400   51.9500 hc       571 PP       0.001800
   5137 HB1        18.6600   49.1700   50.7000 hc       571 PP       0.063200
   5138 HB2        18.1000   49.9000   49.1400 hc       571 PP       0.063200
   5139 HB3        18.7400   50.9000   50.4200 hc       571 PP       0.063200
   5140 C2         16.1900   51.5600   50.3400 c3       572 PP      -0.006100
   5141 C1         16.7200   52.9200   51.0000 c3       572 PP       0.076800
   5142 CB         16.4800   54.1400   50.0100 c3       572 PP      -0.265900
   5143 H21        16.2900   51.3600   49.2600 hc       572 PP       0.001900
   5144 H22        15.1100   51.4200   50.4800 hc       572 PP       0.001900
   5145 H1         17.8000   52.8500   51.1200 hc       572 PP       0.001800
   5146 HB1        16.2200   55.1100   50.4600 hc       572 PP       0.063200
   5147 HB2        17.3100   54.1400   49.2900 hc       572 PP       0.063200
   5148 HB3        15.5700   53.8600   49.4600 hc       572 PP       0.063200
   5149 C2         16.1400   53.0800   52.4600 c3       573 PP      -0.006100
   5150 C1         16.1300   54.5300   53.1400 c3       573 PP       0.076800
   5151 CB         15.3200   54.5200   54.4600 c3       573 PP      -0.265900
   5152 H21        15.0700   52.8600   52.3400 hc       573 PP       0.001900
   5153 H22        16.3800   52.2100   53.0900 hc       573 PP       0.001900
   5154 H1         15.5200   55.1400   52.4700 hc       573 PP       0.001800
   5155 HB1        14.8800   53.5600   54.7300 hc       573 PP       0.063200
   5156 HB2        15.9400   54.8800   55.2900 hc       573 PP       0.063200
   5157 HB3        14.5300   55.2800   54.4500 hc       573 PP       0.063200
   5158 C2         17.5400   55.1700   53.2800 c3       574 PP      -0.006100
   5159 C1         17.5000   56.8100   52.9200 c3       574 PP       0.076800
   5160 CB         16.7500   57.5600   54.0400 c3       574 PP      -0.265900
   5161 H21        17.8100   54.9800   54.3300 hc       574 PP       0.001900
   5162 H22        18.1600   54.6100   52.5700 hc       574 PP       0.001900
   5163 H1         16.9000   56.9700   52.0200 hc       574 PP       0.001800
   5164 HB1        16.8300   58.6600   53.9800 hc       574 PP       0.063200
   5165 HB2        15.6700   57.4100   53.9100 hc       574 PP       0.063200
   5166 HB3        17.1000   57.1900   55.0100 hc       574 PP       0.063200
   5167 C2         18.8800   57.3800   52.6100 c3       575 PP      -0.006100
   5168 C1         19.5700   56.8900   51.3000 c3       575 PP       0.076800
   5169 CB         18.9200   57.5600   50.0500 c3       575 PP      -0.265900
   5170 H21        18.9200   58.4800   52.6300 hc       575 PP       0.001900
   5171 H22        19.5400   57.1700   53.4600 hc       575 PP       0.001900
   5172 H1         19.4600   55.8100   51.2000 hc       575 PP       0.001800
   5173 HB1        17.8400   57.3300   50.0200 hc       575 PP       0.063200
   5174 HB2        19.0400   58.6300   49.8200 hc       575 PP       0.063200
   5175 HB3        19.3000   57.0400   49.1600 hc       575 PP       0.063200
   5176 C2         21.1300   57.1100   51.4200 c3       576 PP      -0.006100
   5177 C1         22.0100   56.2800   50.3600 c3       576 PP       0.076800
   5178 CB         23.2700   57.0000   49.9300 c3       576 PP      -0.265900
   5179 H21        21.3000   58.1700   51.2000 hc       576 PP       0.001900
   5180 H22        21.4300   57.0000   52.4700 hc       576 PP       0.001900
   5181 H1         21.3600   56.2600   49.4900 hc       576 PP       0.001800
   5182 HB1        23.2000   57.9900   49.4600 hc       576 PP       0.063200
   5183 HB2        23.9900   57.1300   50.7500 hc       576 PP       0.063200
   5184 HB3        23.8400   56.3600   49.2400 hc       576 PP       0.063200
   5185 C2         22.2800   54.8900   50.9500 c3       577 PP      -0.006100
   5186 C1         23.1600   53.9100   50.1300 c3       577 PP       0.076800
   5187 CB         24.7000   53.9100   50.5800 c3       577 PP      -0.265900
   5188 H21        22.7300   54.9900   51.9500 hc       577 PP       0.001900
   5189 H22        21.3200   54.3800   51.1300 hc       577 PP       0.001900
   5190 H1         23.2500   54.3800   49.1500 hc       577 PP       0.001800
   5191 HB1        25.2300   53.3100   49.8300 hc       577 PP       0.063200
   5192 HB2        25.0800   54.9400   50.5300 hc       577 PP       0.063200
   5193 HB3        24.9400   53.4600   51.5500 hc       577 PP       0.063200
   5194 C2         22.5700   52.4600   49.9400 c3       578 PP      -0.006100
   5195 C1         22.7300   51.3200   51.0200 c3       578 PP       0.076800
   5196 CB         22.1800   51.7600   52.3800 c3       578 PP      -0.265900
   5197 H21        21.5200   52.5600   49.6300 hc       578 PP       0.001900
   5198 H22        23.0600   51.9500   49.1100 hc       578 PP       0.001900
   5199 H1         23.8000   51.1400   51.1500 hc       578 PP       0.001800
   5200 HB1        22.4100   52.8300   52.4500 hc       578 PP       0.063200
   5201 HB2        21.0900   51.6600   52.4600 hc       578 PP       0.063200
   5202 HB3        22.5700   51.1100   53.1800 hc       578 PP       0.063200
   5203 C2         22.0300   49.9900   50.4900 c3       579 PP      -0.006100
   5204 C1         22.4700   48.5900   51.1700 c3       579 PP       0.076800
   5205 CB         21.2200   47.6700   51.1600 c3       579 PP      -0.265900
   5206 H21        20.9600   50.2000   50.5900 hc       579 PP       0.001900
   5207 H22        22.1600   49.9300   49.4000 hc       579 PP       0.001900
   5208 H1         22.7900   48.7900   52.1900 hc       579 PP       0.001800
   5209 HB1        21.4600   46.6000   51.2400 hc       579 PP       0.063200
   5210 HB2        20.6000   48.0200   52.0000 hc       579 PP       0.063200
   5211 HB3        20.6400   47.7400   50.2300 hc       579 PP       0.063200
   5212 C2         23.6300   48.0300   50.3300 c3       580 PP      -0.006100
   5213 C1         24.2800   46.8000   51.0600 c3       580 PP       0.076800
   5214 CB         24.2300   45.4500   50.1800 c3       580 PP      -0.265900
   5215 H21        23.1800   47.7200   49.3800 hc       580 PP       0.001900
   5216 H22        24.3200   48.8600   50.1100 hc       580 PP       0.001900
   5217 H1         23.6000   46.6000   51.9000 hc       580 PP       0.001800
   5218 HB1        23.1900   45.1300   50.1400 hc       580 PP       0.063200
   5219 HB2        24.6600   45.6100   49.1800 hc       580 PP       0.063200
   5220 HB3        24.6900   44.6500   50.7700 hc       580 PP       0.063200
   5221 C2         25.7500   47.1100   51.5600 c3       581 PP      -0.006100
   5222 C1         26.0800   46.3900   52.9000 c3       581 PP       0.076800
   5223 CB         27.5500   45.8800   53.0400 c3       581 PP      -0.265900
   5224 H21        26.4100   46.6300   50.8300 hc       581 PP       0.001900
   5225 H22        25.8600   48.2000   51.6600 hc       581 PP       0.001900
   5226 H1         25.3700   45.5600   52.9900 hc       581 PP       0.001800
   5227 HB1        27.8700   45.7300   54.0800 hc       581 PP       0.063200
   5228 HB2        27.6700   44.9600   52.4600 hc       581 PP       0.063200
   5229 HB3        28.2900   46.4500   52.4800 hc       581 PP       0.063200
   5230 C2         25.7000   47.1600   54.2000 c3       582 PP      -0.006100
   5231 C1         26.5600   48.3200   54.6500 c3       582 PP       0.076800
   5232 CB         25.9000   49.6900   54.2000 c3       582 PP      -0.265900
   5233 H21        24.6500   47.4700   54.0900 hc       582 PP       0.001900
   5234 H22        25.7000   46.4800   55.0600 hc       582 PP       0.001900
   5235 H1         27.5600   48.2400   54.2100 hc       582 PP       0.001800
   5236 HB1        25.6400   49.8600   53.1500 hc       582 PP       0.063200
   5237 HB2        24.9100   49.7600   54.6700 hc       582 PP       0.063200
   5238 HB3        26.3900   50.5800   54.6000 hc       582 PP       0.063200
   5239 C2         26.6700   48.2000   56.2200 c3       583 PP      -0.006100
   5240 C1         27.4600   49.3600   56.9000 c3       583 PP       0.076800
   5241 CB         27.7300   48.9100   58.3800 c3       583 PP      -0.265900
   5242 H21        25.6800   48.1400   56.6800 hc       583 PP       0.001900
   5243 H22        27.2300   47.2800   56.4500 hc       583 PP       0.001900
   5244 H1         26.7400   50.1900   56.8400 hc       583 PP       0.001800
   5245 HB1        28.3800   49.5300   59.0100 hc       583 PP       0.063200
   5246 HB2        26.7300   48.7900   58.8200 hc       583 PP       0.063200
   5247 HB3        28.3000   47.9800   58.3000 hc       583 PP       0.063200
   5248 C2         28.7600   49.6500   56.1700 c3       584 PP      -0.006100
   5249 C1         29.5800   50.7600   56.8800 c3       584 PP       0.076800
   5250 CB         30.8100   51.0500   56.0100 c3       584 PP      -0.265900
   5251 H21        29.3000   48.7000   56.0900 hc       584 PP       0.001900
   5252 H22        28.4300   49.8900   55.1500 hc       584 PP       0.001900
   5253 H1         29.9600   50.3500   57.8200 hc       584 PP       0.001800
   5254 HB1        31.2800   50.1000   55.7000 hc       584 PP       0.063200
   5255 HB2        30.5400   51.6300   55.1200 hc       584 PP       0.063200
   5256 HB3        31.5700   51.5000   56.6600 hc       584 PP       0.063200
   5257 C2         28.7100   52.0400   57.1400 c3       585 PP      -0.006100
   5258 C1         29.4800   53.2200   57.7600 c3       585 PP       0.076800
   5259 CB         29.8500   54.3700   56.7400 c3       585 PP      -0.265900
   5260 H21        28.3500   52.2800   56.1300 hc       585 PP       0.001900
   5261 H22        27.7400   51.9500   57.6400 hc       585 PP       0.001900
   5262 H1         30.3600   52.7700   58.2500 hc       585 PP       0.001800
   5263 HB1        30.7700   54.0400   56.2400 hc       585 PP       0.063200
   5264 HB2        29.2000   54.6400   55.8900 hc       585 PP       0.063200
   5265 HB3        30.1500   55.3200   57.1900 hc       585 PP       0.063200
   5266 C2         28.6900   53.9800   58.9700 c3       586 PP      -0.006100
   5267 C1         28.3000   53.0500   60.2600 c3       586 PP       0.076800
   5268 CB         29.6100   52.6200   60.9300 c3       586 PP      -0.265900
   5269 H21        29.2200   54.8900   59.2900 hc       586 PP       0.001900
   5270 H22        27.8300   54.5100   58.5500 hc       586 PP       0.001900
   5271 H1         27.8000   52.1500   59.8700 hc       586 PP       0.001800
   5272 HB1        30.3000   52.1900   60.1900 hc       586 PP       0.063200
   5273 HB2        30.1200   53.5000   61.3200 hc       586 PP       0.063200
   5274 HB3        29.5300   51.7400   61.5800 hc       586 PP       0.063200
   5275 C2         27.3700   53.7300   61.3100 c3       587 PP      -0.006100
   5276 C1         26.8900   52.8100   62.4600 c3       587 PP       0.076800
   5277 CB         26.4000   53.6300   63.7000 c3       587 PP      -0.265900
   5278 H21        27.9800   54.5100   61.7900 hc       587 PP       0.001900
   5279 H22        26.4300   54.1400   60.9300 hc       587 PP       0.001900
   5280 H1         27.7700   52.2800   62.8400 hc       587 PP       0.001800
   5281 HB1        26.2000   52.9900   64.5700 hc       587 PP       0.063200
   5282 HB2        27.1600   54.3800   63.9800 hc       587 PP       0.063200
   5283 HB3        25.4700   54.1600   63.4700 hc       587 PP       0.063200
   5284 C2         25.7800   51.7800   62.0600 c3       588 PP      -0.006100
   5285 C1         26.0900   50.5400   61.2100 c3       588 PP       0.076800
   5286 CB         27.4100   49.8100   61.7400 c3       588 PP      -0.265900
   5287 H21        25.2500   51.4300   62.9500 hc       588 PP       0.001900
   5288 H22        25.0000   52.3100   61.5000 hc       588 PP       0.001900
   5289 H1         26.2300   50.9400   60.2000 hc       588 PP       0.001800
   5290 HB1        27.1400   49.1100   62.5400 hc       588 PP       0.063200
   5291 HB2        27.8200   49.1300   60.9800 hc       588 PP       0.063200
   5292 HB3        28.3200   50.3300   62.0500 hc       588 PP       0.063200
   5293 C2         24.9000   49.5000   61.1800 c3       589 PP      -0.006100
   5294 C1         23.6500   49.8100   60.2600 c3       589 PP       0.076800
   5295 CB         24.0700   49.9500   58.8000 c3       589 PP      -0.265900
   5296 H21        25.4200   48.5900   60.8500 hc       589 PP       0.001900
   5297 H22        24.5800   49.1800   62.1800 hc       589 PP       0.001900
   5298 H1         23.2200   50.7500   60.6000 hc       589 PP       0.001800
   5299 HB1        24.7500   50.8000   58.7300 hc       589 PP       0.063200
   5300 HB2        24.4800   49.0500   58.3200 hc       589 PP       0.063200
   5301 HB3        23.1900   50.1500   58.1700 hc       589 PP       0.063200
   5302 C2         22.6800   48.5800   60.3600 c3       590 PP      -0.006100
   5303 C1         21.2400   49.0100   60.1900 c3       590 PP       0.076800
   5304 CB         20.3900   47.7700   59.9900 c3       590 PP      -0.265900
   5305 H21        22.9700   47.8800   59.5700 hc       590 PP       0.001900
   5306 H22        22.8900   48.1000   61.3200 hc       590 PP       0.001900
   5307 H1         21.1500   49.5500   59.2400 hc       590 PP       0.001800
   5308 HB1        19.3800   48.1200   59.7500 hc       590 PP       0.063200
   5309 HB2        20.7100   47.2300   59.0900 hc       590 PP       0.063200
   5310 HB3        20.3100   47.1800   60.9100 hc       590 PP       0.063200
   5311 C2         20.7200   49.8300   61.3900 c3       591 PP      -0.006100
   5312 C1         20.2900   51.2700   61.0100 c3       591 PP       0.076800
   5313 CB         18.9700   51.3000   60.2500 c3       591 PP      -0.265900
   5314 H21        19.8200   49.3700   61.8200 hc       591 PP       0.001900
   5315 H22        21.4100   49.7200   62.2400 hc       591 PP       0.001900
   5316 H1         21.0800   51.6400   60.3600 hc       591 PP       0.001800
   5317 HB1        18.2800   50.5600   60.6800 hc       591 PP       0.063200
   5318 HB2        18.4600   52.2600   60.2900 hc       591 PP       0.063200
   5319 HB3        19.1100   51.0300   59.2000 hc       591 PP       0.063200
   5320 C2         20.3000   52.1100   62.3400 c3       592 PP      -0.006100
   5321 C1         21.6500   52.5600   63.0200 c3       592 PP       0.076800
   5322 CB         22.0800   53.8900   62.3900 c3       592 PP      -0.265900
   5323 H21        19.6200   52.9400   62.1200 hc       592 PP       0.001900
   5324 H22        19.7000   51.5500   63.0700 hc       592 PP       0.001900
   5325 H1         22.4400   51.8600   62.7300 hc       592 PP       0.001800
   5326 HB1        21.3100   54.6600   62.5200 hc       592 PP       0.063200
   5327 HB2        22.9000   54.3800   62.9300 hc       592 PP       0.063200
   5328 HB3        22.3500   53.8800   61.3300 hc       592 PP       0.063200
   5329 C2         21.7200   52.6400   64.5500 c3       593 PP      -0.006100
   5330 C1         21.8600   51.2600   65.2700 c3       593 PP       0.076800
   5331 CB         22.6100   51.4600   66.6700 c3       593 PP      -0.265900
   5332 H21        22.6500   53.1900   64.7300 hc       593 PP       0.001900
   5333 H22        20.8900   53.1800   65.0000 hc       593 PP       0.001900
   5334 H1         22.4200   50.6100   64.5800 hc       593 PP       0.001800
   5335 HB1        23.6400   51.7900   66.4800 hc       593 PP       0.063200
   5336 HB2        22.0500   52.2500   67.1800 hc       593 PP       0.063200
   5337 HB3        22.6100   50.5300   67.2600 hc       593 PP       0.063200
   5338 C2         20.4800   50.6100   65.4600 c3       594 PP      -0.006100
   5339 C1         20.2400   49.5100   66.6000 c3       594 PP       0.076800
   5340 CB         18.7100   49.2200   66.6900 c3       594 PP      -0.265900
   5341 H21        19.8000   51.4100   65.7800 hc       594 PP       0.001900
   5342 H22        20.1700   50.1100   64.5400 hc       594 PP       0.001900
   5343 H1         20.5100   50.0100   67.5400 hc       594 PP       0.001800
   5344 HB1        18.3000   48.9800   65.7000 hc       594 PP       0.063200
   5345 HB2        18.5400   48.3300   67.3100 hc       594 PP       0.063200
   5346 HB3        18.1600   50.0900   67.0600 hc       594 PP       0.063200
   5347 C2         21.1500   48.2800   66.5400 c3       595 PP      -0.006100
   5348 C1         20.8800   47.1100   65.5600 c3       595 PP       0.076800
   5349 CB         21.1100   47.4200   64.0700 c3       595 PP      -0.265900
   5350 H21        22.1200   48.7300   66.3100 hc       595 PP       0.001900
   5351 H22        21.2200   47.8600   67.5600 hc       595 PP       0.001900
   5352 H1         19.8200   46.8100   65.5500 hc       595 PP       0.001800
   5353 HB1        22.1000   47.7700   63.7800 hc       595 PP       0.063200
   5354 HB2        20.9200   46.4800   63.5300 hc       595 PP       0.063200
   5355 HB3        20.4000   48.1500   63.6700 hc       595 PP       0.063200
   5356 C2         21.5800   45.8200   65.9800 c3       596 PP      -0.006100
   5357 C1         23.1100   45.8200   66.4100 c3       596 PP       0.076800
   5358 CB         23.3900   44.3000   66.5300 c3       596 PP      -0.265900
   5359 H21        21.0100   45.4600   66.8400 hc       596 PP       0.001900
   5360 H22        21.4900   45.1300   65.1300 hc       596 PP       0.001900
   5361 H1         23.2900   46.3900   67.3300 hc       596 PP       0.001800
   5362 HB1        22.5600   43.8400   67.0800 hc       596 PP       0.063200
   5363 HB2        23.5000   43.8300   65.5400 hc       596 PP       0.063200
   5364 HB3        24.2900   44.0500   67.1100 hc       596 PP       0.063200
   5365 C2         23.9900   46.5300   65.3200 c3       597 PP      -0.006100
   5366 C1         25.5700   46.4700   65.5400 c3       597 PP       0.076800
   5367 CB         26.3400   45.1400   65.2100 c3       597 PP      -0.265900
   5368 H21        23.7000   46.0600   64.3700 hc       597 PP       0.001900
   5369 H22        23.6700   47.5700   65.1900 hc       597 PP       0.001900
   5370 H1         25.6700   46.6200   66.6200 hc       597 PP       0.001800
   5371 HB1        25.8500   44.2400   65.5900 hc       597 PP       0.063200
   5372 HB2        26.5100   45.0400   64.1300 hc       597 PP       0.063200
   5373 HB3        27.3100   45.0100   65.7000 hc       597 PP       0.063200
   5374 C2         26.2100   47.6600   64.7200 c3       598 PP      -0.006100
   5375 C1         26.4400   48.9900   65.5600 c3       598 PP       0.076800
   5376 CB         25.1800   49.4600   66.2100 c3       598 PP      -0.265900
   5377 H21        27.1700   47.2800   64.3400 hc       598 PP       0.001900
   5378 H22        25.6500   47.9300   63.8200 hc       598 PP       0.001900
   5379 H1         26.7000   49.7000   64.7700 hc       598 PP       0.001800
   5380 HB1        25.2900   50.4400   66.6800 hc       598 PP       0.063200
   5381 HB2        24.3900   49.6600   65.4700 hc       598 PP       0.063200
   5382 HB3        24.7800   48.7300   66.9300 hc       598 PP       0.063200
   5383 C2         27.6200   48.8600   66.5000 c3       599 PP      -0.006100
   5384 C1         29.0500   49.3200   65.9400 c3       599 PP       0.076800
   5385 CB         29.5700   48.4600   64.8300 c3       599 PP      -0.265900
   5386 H21        27.3700   49.4400   67.4000 hc       599 PP       0.001900
   5387 H22        27.5800   47.8300   66.9000 hc       599 PP       0.001900
   5388 H1         29.7800   49.1500   66.7500 hc       599 PP       0.001800
   5389 HB1        30.6600   48.4700   64.7400 hc       599 PP       0.063200
   5390 HB2        29.3400   47.4300   65.1500 hc       599 PP       0.063200
   5391 HB3        29.1300   48.7700   63.8700 hc       599 PP       0.063200
   5392 C2         29.1000   50.8300   65.5700 c3       600 PP      -0.006100
   5393 C1         28.8000   51.8000   66.7000 c3       600 PP       0.076800
   5394 CB         29.4000   53.2600   66.5400 c3       600 PP      -0.265900
   5395 H21        28.4000   51.0200   64.7600 hc       600 PP       0.001900
   5396 H22        30.0700   51.0100   65.1000 hc       600 PP       0.001900
   5397 H1         27.7100   51.8500   66.6900 hc       600 PP       0.001800
   5398 HB1        28.8700   53.9500   67.2100 hc       600 PP       0.063200
   5399 HB2        30.4700   53.2700   66.7700 hc       600 PP       0.063200
   5400 HB3        29.2300   53.6800   65.5400 hc       600 PP       0.063200
   5401 C2         25.9500   42.5100   53.7100 c3       601 PP      -0.006100
   5402 C1         26.0200   42.5200   55.2000 c3       601 PP       0.076800
   5403 CB         27.4100   42.9000   55.8700 c3       601 PP      -0.265900
   5404 H21        26.6100   43.3300   53.3900 hc       601 PP       0.001900
   5405 H22        26.4700   41.5900   53.4100 hc       601 PP       0.001900
   5406 H1         25.8200   41.5000   55.5600 hc       601 PP       0.001800
   5407 HB1        27.2500   43.2700   56.8900 hc       601 PP       0.063200
   5408 HB2        28.0600   42.0200   55.9600 hc       601 PP       0.063200
   5409 HB3        27.9700   43.6000   55.2400 hc       601 PP       0.063200
   5410 C2         24.8600   43.3200   55.8900 c3       602 PP      -0.006100
   5411 C1         23.4700   42.8300   55.6300 c3       602 PP       0.076800
   5412 CB         23.2000   41.4400   56.2900 c3       602 PP      -0.265900
   5413 H21        24.9500   43.4300   56.9700 hc       602 PP       0.001900
   5414 H22        24.9700   44.3500   55.5500 hc       602 PP       0.001900
   5415 H1         23.2400   42.6700   54.5700 hc       602 PP       0.001800
   5416 HB1        23.5300   41.4300   57.3400 hc       602 PP       0.063200
   5417 HB2        22.1200   41.2600   56.3800 hc       602 PP       0.063200
   5418 HB3        23.6100   40.6000   55.7200 hc       602 PP       0.063200
   5419 C2         22.4000   43.8200   56.2300 c3       603 PP      -0.006100
   5420 C1         22.3100   45.2200   55.5700 c3       603 PP       0.076800
   5421 CB         22.2100   45.2000   54.0300 c3       603 PP      -0.265900
   5422 H21        21.4900   43.2400   56.0100 hc       603 PP       0.001900
   5423 H22        22.5300   43.8500   57.3100 hc       603 PP       0.001900
   5424 H1         23.2200   45.7200   55.9000 hc       603 PP       0.001800
   5425 HB1        22.3600   46.2200   53.6400 hc       603 PP       0.063200
   5426 HB2        22.9700   44.5800   53.5400 hc       603 PP       0.063200
   5427 HB3        21.2000   44.9200   53.7300 hc       603 PP       0.063200
   5428 C2         21.1100   46.0700   56.2700 c3       604 PP      -0.006100
   5429 C1         20.9500   47.6000   56.1400 c3       604 PP       0.076800
   5430 CB         22.2200   48.2600   55.5300 c3       604 PP      -0.265900
   5431 H21        20.1600   45.5400   56.1700 hc       604 PP       0.001900
   5432 H22        21.3500   46.0100   57.3400 hc       604 PP       0.001900
   5433 H1         20.6900   48.0100   57.1100 hc       604 PP       0.001800
   5434 HB1        22.4000   48.0000   54.4800 hc       604 PP       0.063200
   5435 HB2        22.2600   49.3400   55.7100 hc       604 PP       0.063200
   5436 HB3        23.0900   47.8500   56.0500 hc       604 PP       0.063200
   5437 C2         19.8000   48.0500   55.2900 c3       605 PP      -0.006100
   5438 C1         19.6200   49.6300   54.9600 c3       605 PP       0.076800
   5439 CB         18.2600   49.7300   54.2600 c3       605 PP      -0.265900
   5440 H21        19.8100   47.5000   54.3400 hc       605 PP       0.001900
   5441 H22        18.8200   47.6600   55.6100 hc       605 PP       0.001900
   5442 H1         20.3400   49.9100   54.1800 hc       605 PP       0.001800
   5443 HB1        18.0000   50.7700   54.0100 hc       605 PP       0.063200
   5444 HB2        18.2000   49.0300   53.4200 hc       605 PP       0.063200
   5445 HB3        17.4800   49.4500   54.9800 hc       605 PP       0.063200
   5446 C2         19.7400   50.6200   56.1000 c3       606 PP      -0.006100
   5447 C1         20.5800   51.8600   55.8000 c3       606 PP       0.076800
   5448 CB         19.9100   52.9200   54.9000 c3       606 PP      -0.265900
   5449 H21        18.7500   50.7600   56.5500 hc       606 PP       0.001900
   5450 H22        20.1500   50.0800   56.9700 hc       606 PP       0.001900
   5451 H1         21.4400   51.5500   55.2000 hc       606 PP       0.001800
   5452 HB1        19.1500   53.4000   55.5200 hc       606 PP       0.063200
   5453 HB2        20.6800   53.6100   54.5300 hc       606 PP       0.063200
   5454 HB3        19.3300   52.5100   54.0600 hc       606 PP       0.063200
   5455 C2         21.1900   52.4800   57.1000 c3       607 PP      -0.006100
   5456 C1         22.2700   53.6800   56.9000 c3       607 PP       0.076800
   5457 CB         22.6100   54.0600   58.3900 c3       607 PP      -0.265900
   5458 H21        20.3700   52.8600   57.7200 hc       607 PP       0.001900
   5459 H22        21.7100   51.7100   57.6900 hc       607 PP       0.001900
   5460 H1         21.7800   54.6300   56.6500 hc       607 PP       0.001800
   5461 HB1        23.4600   53.4800   58.7600 hc       607 PP       0.063200
   5462 HB2        22.8100   55.1400   58.4400 hc       607 PP       0.063200
   5463 HB3        21.8000   53.8100   59.0800 hc       607 PP       0.063200
   5464 C2         23.4100   53.3700   55.9600 c3       608 PP      -0.006100
   5465 C1         24.5400   54.5200   55.8500 c3       608 PP       0.076800
   5466 CB         25.6800   54.1600   56.7900 c3       608 PP      -0.265900
   5467 H21        23.9500   52.4900   56.3500 hc       608 PP       0.001900
   5468 H22        23.0800   53.1900   54.9300 hc       608 PP       0.001900
   5469 H1         24.0800   55.4800   56.0900 hc       608 PP       0.001800
   5470 HB1        26.5600   54.8100   56.6700 hc       608 PP       0.063200
   5471 HB2        25.2900   54.2000   57.8100 hc       608 PP       0.063200
   5472 HB3        26.0500   53.1300   56.8000 hc       608 PP       0.063200
   5473 C2         25.0200   54.5400   54.3300 c3       609 PP      -0.006100
   5474 C1         25.5700   55.9500   53.7200 c3       609 PP       0.076800
   5475 CB         24.5100   57.0700   53.8000 c3       609 PP      -0.265900
   5476 H21        25.7700   53.7500   54.1600 hc       609 PP       0.001900
   5477 H22        24.2300   54.3200   53.6000 hc       609 PP       0.001900
   5478 H1         25.7500   55.7200   52.6700 hc       609 PP       0.001800
   5479 HB1        24.5600   57.5000   54.8100 hc       609 PP       0.063200
   5480 HB2        24.6500   57.8500   53.0500 hc       609 PP       0.063200
   5481 HB3        23.5300   56.6300   53.5900 hc       609 PP       0.063200
   5482 C2         26.9000   56.3200   54.4500 c3       610 PP      -0.006100
   5483 C1         27.7200   57.5100   53.8400 c3       610 PP       0.076800
   5484 CB         28.7500   58.0700   54.8300 c3       610 PP      -0.265900
   5485 H21        26.7400   56.5800   55.5100 hc       610 PP       0.001900
   5486 H22        27.5600   55.4400   54.4500 hc       610 PP       0.001900
   5487 H1         27.0400   58.3600   53.6700 hc       610 PP       0.001800
   5488 HB1        29.3900   58.7000   54.1900 hc       610 PP       0.063200
   5489 HB2        28.1800   58.5700   55.6300 hc       610 PP       0.063200
   5490 HB3        29.3400   57.2100   55.1600 hc       610 PP       0.063200
   5491 C2         28.3400   57.1000   52.5000 c3       611 PP      -0.006100
   5492 C1         28.9300   58.1900   51.5900 c3       611 PP       0.076800
   5493 CB         29.7200   57.6000   50.3500 c3       611 PP      -0.265900
   5494 H21        29.1500   56.3800   52.6400 hc       611 PP       0.001900
   5495 H22        27.6900   56.5700   51.7900 hc       611 PP       0.001900
   5496 H1         29.8200   58.6600   52.0200 hc       611 PP       0.001800
   5497 HB1        30.1400   58.3900   49.7200 hc       611 PP       0.063200
   5498 HB2        30.4400   56.9400   50.8400 hc       611 PP       0.063200
   5499 HB3        29.0500   56.9700   49.7400 hc       611 PP       0.063200
   5500 C2         27.8500   59.1300   50.9400 c3       612 PP      -0.006100
   5501 C1         27.7000   60.5700   51.5400 c3       612 PP       0.076800
   5502 CB         29.0500   61.3000   51.5300 c3       612 PP      -0.265900
   5503 H21        28.1400   59.1600   49.8800 hc       612 PP       0.001900
   5504 H22        26.9000   58.5800   51.0000 hc       612 PP       0.001900
   5505 H1         27.5000   60.4600   52.6100 hc       612 PP       0.001800
   5506 HB1        29.1200   62.1000   52.2700 hc       612 PP       0.063200
   5507 HB2        29.9900   60.7700   51.7500 hc       612 PP       0.063200
   5508 HB3        29.2500   61.7600   50.5500 hc       612 PP       0.063200
   5509 C2         26.5900   61.4100   50.8300 c3       613 PP      -0.006100
   5510 C1         25.1500   61.4000   51.4200 c3       613 PP       0.076800
   5511 CB         24.3300   60.3000   50.7200 c3       613 PP      -0.265900
   5512 H21        26.9100   62.4600   50.8900 hc       613 PP       0.001900
   5513 H22        26.4700   61.2100   49.7500 hc       613 PP       0.001900
   5514 H1         24.6800   62.3400   51.1100 hc       613 PP       0.001800
   5515 HB1        23.3000   60.6700   50.6200 hc       613 PP       0.063200
   5516 HB2        24.5800   60.1600   49.6600 hc       613 PP       0.063200
   5517 HB3        24.3500   59.3300   51.2400 hc       613 PP       0.063200
   5518 C2         24.9900   61.3400   52.9600 c3       614 PP      -0.006100
   5519 C1         23.6700   61.6900   53.5300 c3       614 PP       0.076800
   5520 CB         22.9000   60.3800   53.7800 c3       614 PP      -0.265900
   5521 H21        25.2700   60.3400   53.3000 hc       614 PP       0.001900
   5522 H22        25.6700   62.0300   53.4800 hc       614 PP       0.001900
   5523 H1         23.1100   62.1800   52.7300 hc       614 PP       0.001800
   5524 HB1        21.8300   60.5700   53.9300 hc       614 PP       0.063200
   5525 HB2        22.8200   59.6600   52.9500 hc       614 PP       0.063200
   5526 HB3        23.3200   59.8500   54.6400 hc       614 PP       0.063200
   5527 C2         23.7000   62.7000   54.7100 c3       615 PP      -0.006100
   5528 C1         22.3600   62.9300   55.4100 c3       615 PP       0.076800
   5529 CB         22.6200   63.7900   56.7100 c3       615 PP      -0.265900
   5530 H21        24.4900   62.4200   55.4200 hc       615 PP       0.001900
   5531 H22        24.0200   63.6400   54.2500 hc       615 PP       0.001900
   5532 H1         21.9000   62.0100   55.7900 hc       615 PP       0.001800
   5533 HB1        21.8100   63.6900   57.4400 hc       615 PP       0.063200
   5534 HB2        23.5800   63.5600   57.1800 hc       615 PP       0.063200
   5535 HB3        22.7400   64.8600   56.4900 hc       615 PP       0.063200
   5536 C2         21.3700   63.5900   54.4400 c3       616 PP      -0.006100
   5537 C1         19.8800   63.8700   55.0900 c3       616 PP       0.076800
   5538 CB         19.7500   65.2300   55.6200 c3       616 PP      -0.265900
   5539 H21        21.7900   64.5800   54.2300 hc       616 PP       0.001900
   5540 H22        21.2600   63.0200   53.5100 hc       616 PP       0.001900
   5541 H1         19.7800   63.2400   55.9800 hc       616 PP       0.001800
   5542 HB1        20.4900   65.2900   56.4300 hc       616 PP       0.063200
   5543 HB2        20.0600   66.0200   54.9100 hc       616 PP       0.063200
   5544 HB3        18.7800   65.5700   56.0000 hc       616 PP       0.063200
   5545 C2         18.7300   63.4600   54.0800 c3       617 PP      -0.006100
   5546 C1         18.7500   61.9300   53.7200 c3       617 PP       0.076800
   5547 CB         18.7200   61.0800   54.9900 c3       617 PP      -0.265900
   5548 H21        17.7300   63.8100   54.3600 hc       617 PP       0.001900
   5549 H22        18.7800   63.9100   53.0800 hc       617 PP       0.001900
   5550 H1         19.7500   61.6900   53.3300 hc       617 PP       0.001800
   5551 HB1        18.0600   61.4100   55.8100 hc       617 PP       0.063200
   5552 HB2        18.6200   60.0100   54.7700 hc       617 PP       0.063200
   5553 HB3        19.6800   60.9800   55.5100 hc       617 PP       0.063200
   5554 C2         17.6900   61.4200   52.6800 c3       618 PP      -0.006100
   5555 C1         17.7600   62.0200   51.3000 c3       618 PP       0.076800
   5556 CB         19.1100   61.7700   50.6500 c3       618 PP      -0.265900
   5557 H21        17.8500   60.3600   52.4400 hc       618 PP       0.001900
   5558 H22        16.7000   61.4800   53.1500 hc       618 PP       0.001900
   5559 H1         17.6100   63.0900   51.5200 hc       618 PP       0.001800
   5560 HB1        19.3300   62.0500   49.6100 hc       618 PP       0.063200
   5561 HB2        19.9400   62.0600   51.3000 hc       618 PP       0.063200
   5562 HB3        19.1100   60.6900   50.4600 hc       618 PP       0.063200
   5563 C2         16.5500   61.4800   50.3300 c3       619 PP      -0.006100
   5564 C1         15.1200   62.0100   50.6100 c3       619 PP       0.076800
   5565 CB         14.8900   63.3900   49.9600 c3       619 PP      -0.265900
   5566 H21        16.8300   61.5400   49.2700 hc       619 PP       0.001900
   5567 H22        16.4900   60.4000   50.5000 hc       619 PP       0.001900
   5568 H1         15.0300   62.1000   51.7000 hc       619 PP       0.001800
   5569 HB1        13.8500   63.7300   50.0900 hc       619 PP       0.063200
   5570 HB2        15.6000   64.0800   50.4400 hc       619 PP       0.063200
   5571 HB3        15.0800   63.2700   48.8900 hc       619 PP       0.063200
   5572 C2         14.0300   61.0600   49.9900 c3       620 PP      -0.006100
   5573 C1         13.3300   60.1700   51.0200 c3       620 PP       0.076800
   5574 CB         14.3500   59.4700   51.9900 c3       620 PP      -0.265900
   5575 H21        13.3300   61.7000   49.4300 hc       620 PP       0.001900
   5576 H22        14.4700   60.3700   49.2500 hc       620 PP       0.001900
   5577 H1         12.9800   59.3700   50.3500 hc       620 PP       0.001800
   5578 HB1        15.2200   58.9700   51.5400 hc       620 PP       0.063200
   5579 HB2        14.8300   60.1400   52.7200 hc       620 PP       0.063200
   5580 HB3        13.8700   58.7000   52.6000 hc       620 PP       0.063200
   5581 C2         12.0700   60.8900   51.6100 c3       621 PP      -0.006100
   5582 C1         11.0000   59.8400   52.1100 c3       621 PP       0.076800
   5583 CB          9.8900   60.5400   53.0500 c3       621 PP      -0.265900
   5584 H21        12.2600   61.5600   52.4500 hc       621 PP       0.001900
   5585 H22        11.6300   61.5900   50.8900 hc       621 PP       0.001900
   5586 H1         11.4600   59.0500   52.7300 hc       621 PP       0.001800
   5587 HB1         9.1700   59.7900   53.4200 hc       621 PP       0.063200
   5588 HB2        10.3300   61.0600   53.9100 hc       621 PP       0.063200
   5589 HB3         9.4800   61.3200   52.3900 hc       621 PP       0.063200
   5590 C2         10.2700   59.1800   50.8600 c3       622 PP      -0.006100
   5591 C1         10.2700   57.6300   51.0100 c3       622 PP       0.076800
   5592 CB          9.3100   56.9800   50.0300 c3       622 PP      -0.265900
   5593 H21         9.3000   59.6500   50.6500 hc       622 PP       0.001900
   5594 H22        10.8800   59.4800   50.0000 hc       622 PP       0.001900
   5595 H1          9.8300   57.3200   51.9700 hc       622 PP       0.001800
   5596 HB1         9.7400   57.0300   49.0200 hc       622 PP       0.063200
   5597 HB2         9.1200   55.9400   50.3100 hc       622 PP       0.063200
   5598 HB3         8.3800   57.5700   50.0200 hc       622 PP       0.063200
   5599 C2         11.6800   57.0300   50.7800 c3       623 PP      -0.006100
   5600 C1         11.8200   55.5400   50.7200 c3       623 PP       0.076800
   5601 CB         13.3300   55.2700   50.4500 c3       623 PP      -0.265900
   5602 H21        11.9400   57.4400   49.8000 hc       623 PP       0.001900
   5603 H22        12.4500   57.5700   51.3400 hc       623 PP       0.001900
   5604 H1         11.2200   55.1700   49.8800 hc       623 PP       0.001800
   5605 HB1        13.8600   55.0100   51.3800 hc       623 PP       0.063200
   5606 HB2        13.4800   54.3600   49.8500 hc       623 PP       0.063200
   5607 HB3        13.8200   56.1500   50.0100 hc       623 PP       0.063200
   5608 C2         11.2900   54.9500   52.1000 c3       624 PP      -0.006100
   5609 C1         11.6200   53.4500   52.4900 c3       624 PP       0.076800
   5610 CB         11.7700   53.2100   54.0300 c3       624 PP      -0.265900
   5611 H21        11.5600   55.5800   52.9600 hc       624 PP       0.001900
   5612 H22        10.2000   55.0600   52.0600 hc       624 PP       0.001900
   5613 H1         12.5800   53.1500   52.0400 hc       624 PP       0.001800
   5614 HB1        11.9700   52.1500   54.2300 hc       624 PP       0.063200
   5615 HB2        12.5900   53.7800   54.4800 hc       624 PP       0.063200
   5616 HB3        10.8300   53.3700   54.5700 hc       624 PP       0.063200
   5617 C2         10.5000   52.4700   52.0600 c3       625 PP      -0.006100
   5618 C1         10.3200   52.1800   50.4900 c3       625 PP       0.076800
   5619 CB         11.6700   51.5500   50.0700 c3       625 PP      -0.265900
   5620 H21        10.5200   51.4900   52.5500 hc       625 PP       0.001900
   5621 H22         9.5200   52.9100   52.3000 hc       625 PP       0.001900
   5622 H1         10.1700   53.1200   49.9400 hc       625 PP       0.001800
   5623 HB1        12.3900   52.3700   49.9300 hc       625 PP       0.063200
   5624 HB2        12.0600   50.9100   50.8700 hc       625 PP       0.063200
   5625 HB3        11.7200   51.0100   49.1200 hc       625 PP       0.063200
   5626 C2          9.1100   51.1700   50.2400 c3       626 PP      -0.006100
   5627 C1          7.7600   51.5200   50.8400 c3       626 PP       0.076800
   5628 CB          7.2300   52.9300   50.3700 c3       626 PP      -0.265900
   5629 H21         9.0000   51.0100   49.1600 hc       626 PP       0.001900
   5630 H22         9.2400   50.2100   50.7500 hc       626 PP       0.001900
   5631 H1          7.7500   51.5900   51.9400 hc       626 PP       0.001800
   5632 HB1         7.1100   52.9400   49.2800 hc       626 PP       0.063200
   5633 HB2         6.3700   53.3900   50.8700 hc       626 PP       0.063200
   5634 HB3         7.9200   53.7500   50.6100 hc       626 PP       0.063200
   5635 C2          6.7500   50.3700   50.5900 c3       627 PP      -0.006100
   5636 C1          6.8800   49.1500   51.6300 c3       627 PP       0.076800
   5637 CB          5.4400   48.7100   51.9400 c3       627 PP      -0.265900
   5638 H21         5.7500   50.7800   50.7000 hc       627 PP       0.001900
   5639 H22         6.8900   50.0300   49.5500 hc       627 PP       0.001900
   5640 H1          7.2000   49.5600   52.6000 hc       627 PP       0.001800
   5641 HB1         4.8700   49.5200   52.4200 hc       627 PP       0.063200
   5642 HB2         4.8900   48.4200   51.0400 hc       627 PP       0.063200
   5643 HB3         5.4000   47.7800   52.5200 hc       627 PP       0.063200
   5644 C2          7.7400   47.9400   51.1900 c3       628 PP      -0.006100
   5645 C1          8.7500   47.4500   52.3400 c3       628 PP       0.076800
   5646 CB          7.9300   47.0100   53.6000 c3       628 PP      -0.265900
   5647 H21         7.1100   47.1000   50.8500 hc       628 PP       0.001900
   5648 H22         8.4300   48.2700   50.4100 hc       628 PP       0.001900
   5649 H1          9.4300   48.2500   52.6500 hc       628 PP       0.001800
   5650 HB1         8.5800   46.4500   54.2800 hc       628 PP       0.063200
   5651 HB2         7.4700   47.8600   54.1100 hc       628 PP       0.063200
   5652 HB3         7.1200   46.3000   53.3600 hc       628 PP       0.063200
   5653 C2          9.5300   46.2000   51.8500 c3       629 PP      -0.006100
   5654 C1         10.3600   46.3000   50.5300 c3       629 PP       0.076800
   5655 CB         11.1700   47.6100   50.4100 c3       629 PP      -0.265900
   5656 H21        10.2100   45.8800   52.6600 hc       629 PP       0.001900
   5657 H22         8.7600   45.4200   51.7700 hc       629 PP       0.001900
   5658 H1          9.6200   46.4600   49.7300 hc       629 PP       0.001800
   5659 HB1        10.6100   48.5500   50.2700 hc       629 PP       0.063200
   5660 HB2        11.8200   47.7900   51.2700 hc       629 PP       0.063200
   5661 HB3        11.7600   47.5600   49.4900 hc       629 PP       0.063200
   5662 C2         11.3800   45.1500   50.2200 c3       630 PP      -0.006100
   5663 C1         10.6200   43.7900   50.0800 c3       630 PP       0.076800
   5664 CB         11.3700   42.4300   50.4100 c3       630 PP      -0.265900
   5665 H21        12.0500   45.0400   51.0800 hc       630 PP       0.001900
   5666 H22        12.0100   45.3200   49.3400 hc       630 PP       0.001900
   5667 H1          9.9800   43.6600   49.1900 hc       630 PP       0.001800
   5668 HB1        10.7500   41.7000   50.9500 hc       630 PP       0.063200
   5669 HB2        11.6000   41.9200   49.4600 hc       630 PP       0.063200
   5670 HB3        12.2000   42.6800   51.0700 hc       630 PP       0.063200
   5671 C2         31.1400   69.2000   54.2900 c3       631 PP      -0.006100
   5672 C1         32.4300   69.0600   55.1100 c3       631 PP       0.076800
   5673 CB         33.0900   70.4000   55.3600 c3       631 PP      -0.265900
   5674 H21        30.6600   70.1600   54.4800 hc       631 PP       0.001900
   5675 H22        30.4300   68.4100   54.5800 hc       631 PP       0.001900
   5676 H1         33.0300   68.3300   54.5500 hc       631 PP       0.001800
   5677 HB1        32.5100   70.9900   56.0800 hc       631 PP       0.063200
   5678 HB2        34.0900   70.2900   55.8000 hc       631 PP       0.063200
   5679 HB3        33.2600   71.0000   54.4600 hc       631 PP       0.063200
   5680 C2         32.0800   68.4100   56.4900 c3       632 PP      -0.006100
   5681 C1         33.2400   67.9900   57.3900 c3       632 PP       0.076800
   5682 CB         32.6700   67.5800   58.8000 c3       632 PP      -0.265900
   5683 H21        31.4100   69.0300   57.0900 hc       632 PP       0.001900
   5684 H22        31.5000   67.5300   56.1800 hc       632 PP       0.001900
   5685 H1         33.8600   68.8600   57.6000 hc       632 PP       0.001800
   5686 HB1        33.4800   67.4000   59.5100 hc       632 PP       0.063200
   5687 HB2        31.9300   68.2300   59.2800 hc       632 PP       0.063200
   5688 HB3        32.1600   66.6100   58.7300 hc       632 PP       0.063200
   5689 C2         34.0700   66.9100   56.7100 c3       633 PP      -0.006100
   5690 C1         35.2100   66.3100   57.5800 c3       633 PP       0.076800
   5691 CB         36.0500   65.3400   56.6300 c3       633 PP      -0.265900
   5692 H21        33.4100   66.0800   56.4300 hc       633 PP       0.001900
   5693 H22        34.4800   67.1500   55.7300 hc       633 PP       0.001900
   5694 H1         34.7300   65.7000   58.3600 hc       633 PP       0.001800
   5695 HB1        35.4600   64.4500   56.3600 hc       633 PP       0.063200
   5696 HB2        36.4000   65.8500   55.7200 hc       633 PP       0.063200
   5697 HB3        36.9000   64.8900   57.1400 hc       633 PP       0.063200
   5698 C2         36.1500   67.4100   58.2200 c3       634 PP      -0.006100
   5699 C1         37.0600   66.7900   59.2300 c3       634 PP       0.076800
   5700 CB         38.1700   67.7500   59.4200 c3       634 PP      -0.265900
   5701 H21        36.7600   67.8500   57.4100 hc       634 PP       0.001900
   5702 H22        35.6200   68.2500   58.6900 hc       634 PP       0.001900
   5703 H1         37.3900   65.7800   58.9200 hc       634 PP       0.001800
   5704 HB1        37.8600   68.8000   59.4900 hc       634 PP       0.063200
   5705 HB2        38.7700   67.4700   60.3000 hc       634 PP       0.063200
   5706 HB3        38.8800   67.6800   58.5900 hc       634 PP       0.063200
   5707 C2         36.3700   66.5200   60.6000 c3       635 PP      -0.006100
   5708 C1         37.2700   65.4700   61.4800 c3       635 PP       0.076800
   5709 CB         37.6400   66.1000   62.7900 c3       635 PP      -0.265900
   5710 H21        36.3100   67.4800   61.1200 hc       635 PP       0.001900
   5711 H22        35.3100   66.2500   60.5300 hc       635 PP       0.001900
   5712 H1         38.2000   65.1800   60.9700 hc       635 PP       0.001800
   5713 HB1        36.9400   66.8400   63.2100 hc       635 PP       0.063200
   5714 HB2        37.8300   65.4100   63.6200 hc       635 PP       0.063200
   5715 HB3        38.5700   66.6600   62.6300 hc       635 PP       0.063200
   5716 C2         36.4800   64.1700   61.7400 c3       636 PP      -0.006100
   5717 C1         36.3400   63.2500   60.5100 c3       636 PP       0.076800
   5718 CB         37.5000   62.2100   60.2300 c3       636 PP      -0.265900
   5719 H21        36.9800   63.5800   62.5200 hc       636 PP       0.001900
   5720 H22        35.5500   64.4200   62.2800 hc       636 PP       0.001900
   5721 H1         36.4100   63.8200   59.5800 hc       636 PP       0.001800
   5722 HB1        37.3500   61.6400   59.3000 hc       636 PP       0.063200
   5723 HB2        38.4500   62.7500   60.1400 hc       636 PP       0.063200
   5724 HB3        37.5500   61.5200   61.0900 hc       636 PP       0.063200
   5725 C2         34.9700   62.4700   60.5700 c3       637 PP      -0.006100
   5726 C1         33.7900   63.3100   60.0200 c3       637 PP       0.076800
   5727 CB         33.5200   63.1100   58.4900 c3       637 PP      -0.265900
   5728 H21        35.0000   61.5100   60.0400 hc       637 PP       0.001900
   5729 H22        34.7900   62.1900   61.6200 hc       637 PP       0.001900
   5730 H1         34.0200   64.3700   60.1600 hc       637 PP       0.001800
   5731 HB1        32.8900   62.2500   58.2500 hc       637 PP       0.063200
   5732 HB2        33.1800   64.0000   57.9500 hc       637 PP       0.063200
   5733 HB3        34.4400   62.8400   57.9600 hc       637 PP       0.063200
   5734 C2         32.4700   63.0600   60.8500 c3       638 PP      -0.006100
   5735 C1         31.3400   64.1700   60.7200 c3       638 PP       0.076800
   5736 CB         30.4300   63.9400   59.4900 c3       638 PP      -0.265900
   5737 H21        32.0800   62.1500   60.3700 hc       638 PP       0.001900
   5738 H22        32.7300   62.9100   61.9000 hc       638 PP       0.001900
   5739 H1         31.7700   65.1600   60.5400 hc       638 PP       0.001800
   5740 HB1        31.0300   63.8200   58.5800 hc       638 PP       0.063200
   5741 HB2        29.7900   63.0500   59.5000 hc       638 PP       0.063200
   5742 HB3        29.6900   64.7200   59.2400 hc       638 PP       0.063200
   5743 C2         30.6200   64.1100   62.0400 c3       639 PP      -0.006100
   5744 C1         29.3500   65.0100   62.0400 c3       639 PP       0.076800
   5745 CB         28.8400   64.9500   63.4700 c3       639 PP      -0.265900
   5746 H21        30.3200   63.0800   62.2900 hc       639 PP       0.001900
   5747 H22        31.3600   64.4600   62.7800 hc       639 PP       0.001900
   5748 H1         28.5900   64.6200   61.3600 hc       639 PP       0.001800
   5749 HB1        28.6500   63.9100   63.7700 hc       639 PP       0.063200
   5750 HB2        29.5700   65.4400   64.1200 hc       639 PP       0.063200
   5751 HB3        27.9300   65.5600   63.5900 hc       639 PP       0.063200
   5752 C2         29.7100   66.5100   61.6700 c3       640 PP      -0.006100
   5753 C1         28.4900   67.4800   61.6200 c3       640 PP       0.076800
   5754 CB         29.0200   68.9300   61.2500 c3       640 PP      -0.265900
   5755 H21        30.4800   66.9000   62.3500 hc       640 PP       0.001900
   5756 H22        30.2500   66.5700   60.7100 hc       640 PP       0.001900
   5757 H1         28.1800   67.5700   62.6700 hc       640 PP       0.001800
   5758 HB1        29.3400   68.9300   60.2000 hc       640 PP       0.063200
   5759 HB2        28.2600   69.7100   61.2300 hc       640 PP       0.063200
   5760 HB3        29.7900   69.3200   61.9300 hc       640 PP       0.063200
   5761 C2         27.4300   66.9500   60.5400 c3       641 PP      -0.006100
   5762 C1         26.0700   66.6100   61.1300 c3       641 PP       0.076800
   5763 CB         25.3200   67.8700   61.4200 c3       641 PP      -0.265900
   5764 H21        27.3600   67.7600   59.8000 hc       641 PP       0.001900
   5765 H22        27.7900   66.0900   59.9600 hc       641 PP       0.001900
   5766 H1         26.2100   66.0500   62.0600 hc       641 PP       0.001800
   5767 HB1        24.2900   67.5500   61.6400 hc       641 PP       0.063200
   5768 HB2        25.6900   68.3200   62.3500 hc       641 PP       0.063200
   5769 HB3        25.3100   68.6600   60.6600 hc       641 PP       0.063200
   5770 C2         25.2200   65.6900   60.1500 c3       642 PP      -0.006100
   5771 C1         24.3600   64.7300   61.0500 c3       642 PP       0.076800
   5772 CB         23.2100   64.1200   60.3300 c3       642 PP      -0.265900
   5773 H21        24.5000   66.3100   59.6000 hc       642 PP       0.001900
   5774 H22        25.7500   65.1000   59.4000 hc       642 PP       0.001900
   5775 H1         23.8400   65.2300   61.8900 hc       642 PP       0.001800
   5776 HB1        22.5800   64.8700   59.8200 hc       642 PP       0.063200
   5777 HB2        23.6300   63.5500   59.4900 hc       642 PP       0.063200
   5778 HB3        22.6700   63.3900   60.9500 hc       642 PP       0.063200
   5779 C2         25.3000   63.5200   61.6100 c3       643 PP      -0.006100
   5780 C1         24.7300   62.7400   62.8000 c3       643 PP       0.076800
   5781 CB         25.2700   61.2400   62.7900 c3       643 PP      -0.265900
   5782 H21        25.2100   62.8100   60.7800 hc       643 PP       0.001900
   5783 H22        26.3100   63.8400   61.8900 hc       643 PP       0.001900
   5784 H1         23.6500   62.6400   62.6900 hc       643 PP       0.001800
   5785 HB1        26.2900   61.2200   63.1800 hc       643 PP       0.063200
   5786 HB2        24.6400   60.6100   63.4300 hc       643 PP       0.063200
   5787 HB3        25.2300   61.0000   61.7200 hc       643 PP       0.063200
   5788 C2         25.1000   63.4900   64.1200 c3       644 PP      -0.006100
   5789 C1         24.4200   62.7800   65.3500 c3       644 PP       0.076800
   5790 CB         25.4700   62.2100   66.2500 c3       644 PP      -0.265900
   5791 H21        26.1900   63.5500   64.1900 hc       644 PP       0.001900
   5792 H22        24.7000   64.5100   64.0500 hc       644 PP       0.001900
   5793 H1         23.7500   62.0100   64.9400 hc       644 PP       0.001800
   5794 HB1        24.9800   61.7400   67.1100 hc       644 PP       0.063200
   5795 HB2        26.1100   61.5600   65.6500 hc       644 PP       0.063200
   5796 HB3        26.2400   62.9300   66.5700 hc       644 PP       0.063200
   5797 C2         23.5000   63.7500   66.2100 c3       645 PP      -0.006100
   5798 C1         22.0700   63.7800   65.6200 c3       645 PP       0.076800
   5799 CB         21.1000   64.3800   66.6600 c3       645 PP      -0.265900
   5800 H21        23.6500   63.5100   67.2700 hc       645 PP       0.001900
   5801 H22        23.7400   64.8200   66.1900 hc       645 PP       0.001900
   5802 H1         21.7100   62.7600   65.4600 hc       645 PP       0.001800
   5803 HB1        21.1500   65.4700   66.8000 hc       645 PP       0.063200
   5804 HB2        20.0400   64.2000   66.4200 hc       645 PP       0.063200
   5805 HB3        21.3700   64.0300   67.6600 hc       645 PP       0.063200
   5806 C2         21.9700   64.6800   64.3200 c3       646 PP      -0.006100
   5807 C1         20.5500   65.0600   63.7300 c3       646 PP       0.076800
   5808 CB         20.5000   66.5800   63.4800 c3       646 PP      -0.265900
   5809 H21        22.5400   65.5900   64.5500 hc       646 PP       0.001900
   5810 H22        22.5600   64.2700   63.4900 hc       646 PP       0.001900
   5811 H1         19.8000   65.0500   64.5300 hc       646 PP       0.001800
   5812 HB1        20.9600   66.8200   62.5100 hc       646 PP       0.063200
   5813 HB2        19.4700   66.9200   63.3400 hc       646 PP       0.063200
   5814 HB3        21.1000   67.1100   64.2300 hc       646 PP       0.063200
   5815 C2         19.9800   64.2500   62.5500 c3       647 PP      -0.006100
   5816 C1         19.2600   62.8200   62.8700 c3       647 PP       0.076800
   5817 CB         20.2600   61.6700   62.8500 c3       647 PP      -0.265900
   5818 H21        19.3300   64.8400   61.8900 hc       647 PP       0.001900
   5819 H22        20.8500   63.9800   61.9400 hc       647 PP       0.001900
   5820 H1         18.6200   62.7100   61.9900 hc       647 PP       0.001800
   5821 HB1        19.6400   60.7600   62.8500 hc       647 PP       0.063200
   5822 HB2        20.9000   61.6700   61.9600 hc       647 PP       0.063200
   5823 HB3        20.9500   61.7900   63.6900 hc       647 PP       0.063200
   5824 C2         18.2500   62.7700   64.0600 c3       648 PP      -0.006100
   5825 C1         17.1300   63.9400   63.9800 c3       648 PP       0.076800
   5826 CB         15.9900   63.5300   63.0300 c3       648 PP      -0.265900
   5827 H21        17.7600   61.7900   64.1400 hc       648 PP       0.001900
   5828 H22        18.8900   62.8000   64.9500 hc       648 PP       0.001900
   5829 H1         17.6100   64.8300   63.5400 hc       648 PP       0.001800
   5830 HB1        15.3700   62.7200   63.4300 hc       648 PP       0.063200
   5831 HB2        15.2100   64.2900   62.9600 hc       648 PP       0.063200
   5832 HB3        16.3900   63.1200   62.0900 hc       648 PP       0.063200
   5833 C2         16.6700   64.3600   65.3900 c3       649 PP      -0.006100
   5834 C1         15.5300   65.4700   65.4500 c3       649 PP       0.076800
   5835 CB         14.9800   65.6100   66.8500 c3       649 PP      -0.265900
   5836 H21        16.3000   63.4600   65.9100 hc       649 PP       0.001900
   5837 H22        17.6100   64.6100   65.9000 hc       649 PP       0.001900
   5838 H1         14.6700   65.1500   64.8500 hc       649 PP       0.001800
   5839 HB1        15.6000   66.2700   67.4700 hc       649 PP       0.063200
   5840 HB2        13.9900   66.0800   66.7600 hc       649 PP       0.063200
   5841 HB3        14.8800   64.6400   67.3500 hc       649 PP       0.063200
   5842 C2         15.9600   66.8800   64.9600 c3       650 PP      -0.006100
   5843 C1         15.8100   67.2700   63.4500 c3       650 PP       0.076800
   5844 CB         14.2800   67.2100   63.0000 c3       650 PP      -0.265900
   5845 H21        15.5100   67.7100   65.5300 hc       650 PP       0.001900
   5846 H22        17.0200   66.9500   65.2300 hc       650 PP       0.001900
   5847 H1         16.3700   66.6000   62.7900 hc       650 PP       0.001800
   5848 HB1        14.1800   67.4100   61.9300 hc       650 PP       0.063200
   5849 HB2        13.9600   66.1600   62.9800 hc       650 PP       0.063200
   5850 HB3        13.6000   67.7500   63.6800 hc       650 PP       0.063200
   5851 C2         16.2900   68.7600   63.2500 c3       651 PP      -0.006100
   5852 C1         16.3400   69.4900   61.8400 c3       651 PP       0.076800
   5853 CB         14.9200   69.7600   61.1500 c3       651 PP      -0.265900
   5854 H21        15.7100   69.3800   63.9400 hc       651 PP       0.001900
   5855 H22        17.3200   68.8100   63.6200 hc       651 PP       0.001900
   5856 H1         16.9200   68.9300   61.1000 hc       651 PP       0.001800
   5857 HB1        15.0800   70.7000   60.6200 hc       651 PP       0.063200
   5858 HB2        14.6600   69.0100   60.3900 hc       651 PP       0.063200
   5859 HB3        14.1200   70.0200   61.8400 hc       651 PP       0.063200
   5860 C2         17.0200   70.8800   62.0100 c3       652 PP      -0.006100
   5861 C1         18.2200   71.1000   61.0500 c3       652 PP       0.076800
   5862 CB         18.5400   72.6400   60.8500 c3       652 PP      -0.265900
   5863 H21        16.3400   71.7400   61.9300 hc       652 PP       0.001900
   5864 H22        17.3200   71.0600   63.0500 hc       652 PP       0.001900
   5865 H1         17.9500   70.6600   60.0900 hc       652 PP       0.001800
   5866 HB1        19.3000   72.6800   60.0700 hc       652 PP       0.063200
   5867 HB2        17.6400   73.0500   60.3700 hc       652 PP       0.063200
   5868 HB3        18.8500   73.1700   61.7600 hc       652 PP       0.063200
   5869 C2         19.4700   70.4100   61.6500 c3       653 PP      -0.006100
   5870 C1         20.7300   70.1900   60.7400 c3       653 PP       0.076800
   5871 CB         21.9300   70.0200   61.6900 c3       653 PP      -0.265900
   5872 H21        19.7700   70.9600   62.5500 hc       653 PP       0.001900
   5873 H22        19.1200   69.4200   61.9500 hc       653 PP       0.001900
   5874 H1         20.9500   71.0900   60.1500 hc       653 PP       0.001800
   5875 HB1        21.9500   70.7200   62.5400 hc       653 PP       0.063200
   5876 HB2        21.9300   69.0100   62.1200 hc       653 PP       0.063200
   5877 HB3        22.8500   70.0300   61.0900 hc       653 PP       0.063200
   5878 C2         20.5100   68.9600   59.8400 c3       654 PP      -0.006100
   5879 C1         21.6400   68.5500   58.9200 c3       654 PP       0.076800
   5880 CB         21.4100   67.3400   57.9700 c3       654 PP      -0.265900
   5881 H21        20.3500   68.1700   60.5800 hc       654 PP       0.001900
   5882 H22        19.6300   69.0800   59.1800 hc       654 PP       0.001900
   5883 H1         22.5900   68.4600   59.4600 hc       654 PP       0.001800
   5884 HB1        22.2000   66.9900   57.2900 hc       654 PP       0.063200
   5885 HB2        21.3400   66.5400   58.7200 hc       654 PP       0.063200
   5886 HB3        20.5400   67.4700   57.3200 hc       654 PP       0.063200
   5887 C2         22.1300   69.7900   58.0300 c3       655 PP      -0.006100
   5888 C1         23.1400   69.5300   56.9400 c3       655 PP       0.076800
   5889 CB         23.4800   70.8500   56.1700 c3       655 PP      -0.265900
   5890 H21        21.2300   70.2200   57.5600 hc       655 PP       0.001900
   5891 H22        22.5900   70.5800   58.6400 hc       655 PP       0.001900
   5892 H1         22.7800   68.8600   56.1500 hc       655 PP       0.001800
   5893 HB1        22.5800   71.3400   55.7700 hc       655 PP       0.063200
   5894 HB2        24.0800   71.4800   56.8400 hc       655 PP       0.063200
   5895 HB3        24.0700   70.7900   55.2500 hc       655 PP       0.063200
   5896 C2         24.4100   68.8800   57.4900 c3       656 PP      -0.006100
   5897 C1         25.5100   68.5600   56.3300 c3       656 PP       0.076800
   5898 CB         26.6900   69.5400   56.4600 c3       656 PP      -0.265900
   5899 H21        24.7700   69.5500   58.2800 hc       656 PP       0.001900
   5900 H22        24.2200   67.9400   58.0300 hc       656 PP       0.001900
   5901 H1         25.1300   68.7600   55.3200 hc       656 PP       0.001800
   5902 HB1        26.3400   70.5800   56.4700 hc       656 PP       0.063200
   5903 HB2        27.2100   69.2300   57.3700 hc       656 PP       0.063200
   5904 HB3        27.3000   69.3300   55.5700 hc       656 PP       0.063200
   5905 C2         25.9100   67.0600   56.4400 c3       657 PP      -0.006100
   5906 C1         27.1700   66.4700   55.7200 c3       657 PP       0.076800
   5907 CB         28.5700   66.8300   56.3000 c3       657 PP      -0.265900
   5908 H21        26.0900   66.8500   57.5000 hc       657 PP       0.001900
   5909 H22        25.0100   66.5000   56.1400 hc       657 PP       0.001900
   5910 H1         27.1100   66.9100   54.7200 hc       657 PP       0.001800
   5911 HB1        28.8200   66.1300   57.1100 hc       657 PP       0.063200
   5912 HB2        29.3300   66.7500   55.5200 hc       657 PP       0.063200
   5913 HB3        28.6600   67.8800   56.6000 hc       657 PP       0.063200
   5914 C2         27.0200   64.8600   55.5800 c3       658 PP      -0.006100
   5915 C1         27.8500   64.1200   54.5000 c3       658 PP       0.076800
   5916 CB         28.0300   64.9200   53.2500 c3       658 PP      -0.265900
   5917 H21        27.2900   64.4000   56.5400 hc       658 PP       0.001900
   5918 H22        25.9700   64.6600   55.3500 hc       658 PP       0.001900
   5919 H1         27.2300   63.2400   54.2900 hc       658 PP       0.001800
   5920 HB1        27.0600   65.3000   52.9200 hc       658 PP       0.063200
   5921 HB2        28.7300   65.7500   53.3800 hc       658 PP       0.063200
   5922 HB3        28.4200   64.2400   52.4800 hc       658 PP       0.063200
   5923 C2         29.2300   63.5600   55.0200 c3       659 PP      -0.006100
   5924 C1         29.1800   61.9800   55.1000 c3       659 PP       0.076800
   5925 CB         30.5600   61.4100   55.0600 c3       659 PP      -0.265900
   5926 H21        30.0200   63.9300   54.3600 hc       659 PP       0.001900
   5927 H22        29.4800   63.9100   56.0300 hc       659 PP       0.001900
   5928 H1         28.5600   61.5400   54.3100 hc       659 PP       0.001800
   5929 HB1        31.0000   61.6400   54.0800 hc       659 PP       0.063200
   5930 HB2        31.2300   61.7900   55.8400 hc       659 PP       0.063200
   5931 HB3        30.4800   60.3100   55.1100 hc       659 PP       0.063200
   5932 C2         28.5000   61.4800   56.4400 c3       660 PP      -0.006100
   5933 C1         26.9500   61.6300   56.5800 c3       660 PP       0.076800
   5934 CB         26.2500   61.7000   58.0400 c3       660 PP      -0.265900
   5935 H21        28.9200   61.9000   57.3600 hc       660 PP       0.001900
   5936 H22        28.7300   60.4100   56.4900 hc       660 PP       0.001900
   5937 H1         26.4200   60.9600   55.8900 hc       660 PP       0.001800
   5938 HB1        26.5600   60.8900   58.7100 hc       660 PP       0.063200
   5939 HB2        26.5700   62.6300   58.5300 hc       660 PP       0.063200
   5940 HB3        25.1700   61.6900   57.8700 hc       660 PP       0.063200
   5941 C2         44.4600   23.1500   55.5500 c3       661 PP      -0.006100
   5942 C1         44.9800   23.3000   54.1300 c3       661 PP       0.076800
   5943 CB         46.5600   23.1500   53.9500 c3       661 PP      -0.265900
   5944 H21        44.8700   24.0200   56.0900 hc       661 PP       0.001900
   5945 H22        44.9100   22.2600   56.0100 hc       661 PP       0.001900
   5946 H1         44.7100   24.3000   53.7700 hc       661 PP       0.001800
   5947 HB1        46.9200   23.5400   52.9900 hc       661 PP       0.063200
   5948 HB2        47.0900   23.7700   54.6900 hc       661 PP       0.063200
   5949 HB3        46.9000   22.1100   54.0300 hc       661 PP       0.063200
   5950 C2         44.2400   22.2600   53.2400 c3       662 PP      -0.006100
   5951 C1         42.7000   22.3900   52.9400 c3       662 PP       0.076800
   5952 CB         41.7600   21.7100   54.0300 c3       662 PP      -0.265900
   5953 H21        44.7400   22.4000   52.2700 hc       662 PP       0.001900
   5954 H22        44.4600   21.2800   53.6800 hc       662 PP       0.001900
   5955 H1         42.4700   21.8500   52.0200 hc       662 PP       0.001800
   5956 HB1        41.9900   20.6500   54.2200 hc       662 PP       0.063200
   5957 HB2        41.9300   22.2400   54.9700 hc       662 PP       0.063200
   5958 HB3        40.6900   21.6200   53.8100 hc       662 PP       0.063200
   5959 C2         42.2600   23.8600   52.6700 c3       663 PP      -0.006100
   5960 C1         42.7800   24.4900   51.3400 c3       663 PP       0.076800
   5961 CB         42.4600   23.7200   50.1000 c3       663 PP      -0.265900
   5962 H21        41.1900   24.0700   52.5900 hc       663 PP       0.001900
   5963 H22        42.6400   24.4200   53.5400 hc       663 PP       0.001900
   5964 H1         43.8600   24.4000   51.4700 hc       663 PP       0.001800
   5965 HB1        43.3200   23.1400   49.7400 hc       663 PP       0.063200
   5966 HB2        41.6800   22.9700   50.2400 hc       663 PP       0.063200
   5967 HB3        42.1900   24.3500   49.2500 hc       663 PP       0.063200
   5968 C2         42.4100   26.0200   51.2300 c3       664 PP      -0.006100
   5969 C1         42.9200   26.8400   49.9500 c3       664 PP       0.076800
   5970 CB         42.3600   28.2400   50.0500 c3       664 PP      -0.265900
   5971 H21        41.3200   26.1100   51.3900 hc       664 PP       0.001900
   5972 H22        42.9000   26.3800   52.1300 hc       664 PP       0.001900
   5973 H1         42.5700   26.3600   49.0200 hc       664 PP       0.001800
   5974 HB1        43.0900   28.9300   49.6200 hc       664 PP       0.063200
   5975 HB2        41.3700   28.2700   49.5900 hc       664 PP       0.063200
   5976 HB3        42.2000   28.4900   51.1100 hc       664 PP       0.063200
   5977 C2         44.4500   26.8400   49.9000 c3       665 PP      -0.006100
   5978 C1         45.2500   27.5000   51.0400 c3       665 PP       0.076800
   5979 CB         46.3700   26.5800   51.5600 c3       665 PP      -0.265900
   5980 H21        44.7500   25.7900   49.8500 hc       665 PP       0.001900
   5981 H22        44.8200   27.1900   48.9200 hc       665 PP       0.001900
   5982 H1         44.6000   27.6600   51.9200 hc       665 PP       0.001800
   5983 HB1        46.9000   27.0300   52.4100 hc       665 PP       0.063200
   5984 HB2        45.9400   25.5900   51.7500 hc       665 PP       0.063200
   5985 HB3        47.0500   26.2800   50.7600 hc       665 PP       0.063200
   5986 C2         45.8200   28.8500   50.5400 c3       666 PP      -0.006100
   5987 C1         45.1900   30.0500   51.3100 c3       666 PP       0.076800
   5988 CB         45.7200   30.0400   52.7300 c3       666 PP      -0.265900
   5989 H21        46.8900   28.8800   50.7800 hc       666 PP       0.001900
   5990 H22        45.6400   29.0300   49.4700 hc       666 PP       0.001900
   5991 H1         44.0900   29.9700   51.3600 hc       666 PP       0.001800
   5992 HB1        45.5900   30.9500   53.3200 hc       666 PP       0.063200
   5993 HB2        45.4800   29.1100   53.2700 hc       666 PP       0.063200
   5994 HB3        46.8100   29.9800   52.6500 hc       666 PP       0.063200
   5995 C2         45.5100   31.3900   50.6200 c3       667 PP      -0.006100
   5996 C1         44.4800   32.4700   50.9300 c3       667 PP       0.076800
   5997 CB         44.9900   33.9300   50.5600 c3       667 PP      -0.265900
   5998 H21        46.5100   31.8100   50.7800 hc       667 PP       0.001900
   5999 H22        45.4800   31.3400   49.5300 hc       667 PP       0.001900
   6000 H1         44.2900   32.5100   52.0000 hc       667 PP       0.001800
   6001 HB1        44.2600   34.7000   50.8100 hc       667 PP       0.063200
   6002 HB2        45.9100   33.9700   51.1600 hc       667 PP       0.063200
   6003 HB3        45.3700   33.9800   49.5300 hc       667 PP       0.063200
   6004 C2         43.2100   32.3600   50.1500 c3       668 PP      -0.006100
   6005 C1         41.9500   32.1000   51.0300 c3       668 PP       0.076800
   6006 CB         41.6400   33.4800   51.7500 c3       668 PP      -0.265900
   6007 H21        42.9200   33.2200   49.5300 hc       668 PP       0.001900
   6008 H22        43.2400   31.4700   49.5100 hc       668 PP       0.001900
   6009 H1         42.2400   31.3300   51.7500 hc       668 PP       0.001800
   6010 HB1        41.0800   34.0600   51.0100 hc       668 PP       0.063200
   6011 HB2        40.9400   33.3000   52.5700 hc       668 PP       0.063200
   6012 HB3        42.5000   34.0400   52.1300 hc       668 PP       0.063200
   6013 C2         40.7200   31.6000   50.2300 c3       669 PP      -0.006100
   6014 C1         39.5800   30.8800   51.1600 c3       669 PP       0.076800
   6015 CB         38.8300   31.7600   52.1300 c3       669 PP      -0.265900
   6016 H21        40.2800   32.4100   49.6400 hc       669 PP       0.001900
   6017 H22        41.0800   30.7700   49.6000 hc       669 PP       0.001900
   6018 H1         40.0700   30.2300   51.8900 hc       669 PP       0.001800
   6019 HB1        39.3500   31.9600   53.0800 hc       669 PP       0.063200
   6020 HB2        38.5000   32.6900   51.6500 hc       669 PP       0.063200
   6021 HB3        37.9400   31.2900   52.5700 hc       669 PP       0.063200
   6022 C2         38.7000   29.9700   50.2400 c3       670 PP      -0.006100
   6023 C1         37.8300   28.8700   50.9900 c3       670 PP       0.076800
   6024 CB         36.3800   29.2900   51.1800 c3       670 PP      -0.265900
   6025 H21        38.0800   30.6000   49.5900 hc       670 PP       0.001900
   6026 H22        39.3900   29.4300   49.5800 hc       670 PP       0.001900
   6027 H1         38.1500   28.7300   52.0300 hc       670 PP       0.001800
   6028 HB1        35.8800   28.4800   51.7300 hc       670 PP       0.063200
   6029 HB2        36.3600   30.2200   51.7600 hc       670 PP       0.063200
   6030 HB3        35.9000   29.4900   50.2100 hc       670 PP       0.063200
   6031 C2         37.8800   27.4200   50.2900 c3       671 PP      -0.006100
   6032 C1         37.3600   26.1900   51.1100 c3       671 PP       0.076800
   6033 CB         35.9400   25.7800   50.5900 c3       671 PP      -0.265900
   6034 H21        37.3700   27.4800   49.3200 hc       671 PP       0.001900
   6035 H22        38.9600   27.3300   50.1300 hc       671 PP       0.001900
   6036 H1         37.3200   26.4300   52.1800 hc       671 PP       0.001800
   6037 HB1        35.9300   25.7400   49.4900 hc       671 PP       0.063200
   6038 HB2        35.6700   24.7500   50.8600 hc       671 PP       0.063200
   6039 HB3        35.1300   26.4800   50.8100 hc       671 PP       0.063200
   6040 C2         38.3400   24.9600   50.8900 c3       672 PP      -0.006100
   6041 C1         38.2800   23.8400   52.0500 c3       672 PP       0.076800
   6042 CB         38.2600   24.3300   53.4500 c3       672 PP      -0.265900
   6043 H21        38.1500   24.5400   49.8900 hc       672 PP       0.001900
   6044 H22        39.3800   25.2700   50.7400 hc       672 PP       0.001900
   6045 H1         39.2500   23.3600   51.8700 hc       672 PP       0.001800
   6046 HB1        38.5700   23.5800   54.1900 hc       672 PP       0.063200
   6047 HB2        38.9500   25.1600   53.6400 hc       672 PP       0.063200
   6048 HB3        37.2800   24.7300   53.7600 hc       672 PP       0.063200
   6049 C2         37.2500   22.6400   51.8700 c3       673 PP      -0.006100
   6050 C1         37.3500   21.9700   50.4700 c3       673 PP       0.076800
   6051 CB         38.7900   21.6100   50.0800 c3       673 PP      -0.265900
   6052 H21        37.5900   21.8400   52.5400 hc       673 PP       0.001900
   6053 H22        36.2200   22.9200   52.1300 hc       673 PP       0.001900
   6054 H1         36.9400   22.6700   49.7300 hc       673 PP       0.001800
   6055 HB1        39.4200   22.4800   49.9000 hc       673 PP       0.063200
   6056 HB2        39.3200   21.0300   50.8400 hc       673 PP       0.063200
   6057 HB3        38.8200   20.9400   49.2100 hc       673 PP       0.063200
   6058 C2         36.5900   20.6000   50.5400 c3       674 PP      -0.006100
   6059 C1         35.1200   20.5900   51.1300 c3       674 PP       0.076800
   6060 CB         34.2500   21.7500   50.4900 c3       674 PP      -0.265900
   6061 H21        36.5200   20.2800   49.4900 hc       674 PP       0.001900
   6062 H22        37.2200   19.9000   51.0900 hc       674 PP       0.001900
   6063 H1         35.0300   20.7400   52.2100 hc       674 PP       0.001800
   6064 HB1        34.6900   22.7400   50.6100 hc       674 PP       0.063200
   6065 HB2        34.2600   21.6200   49.4000 hc       674 PP       0.063200
   6066 HB3        33.2000   21.7500   50.8000 hc       674 PP       0.063200
   6067 C2         34.4400   19.2400   50.7100 c3       675 PP      -0.006100
   6068 C1         35.1200   17.9200   51.1900 c3       675 PP       0.076800
   6069 CB         35.4000   17.9400   52.7300 c3       675 PP      -0.265900
   6070 H21        33.3700   19.2500   50.9600 hc       675 PP       0.001900
   6071 H22        34.4200   19.1700   49.6200 hc       675 PP       0.001900
   6072 H1         36.1300   17.8900   50.7600 hc       675 PP       0.001800
   6073 HB1        34.6700   18.4800   53.3500 hc       675 PP       0.063200
   6074 HB2        35.7300   16.9900   53.1500 hc       675 PP       0.063200
   6075 HB3        36.3400   18.5100   52.7700 hc       675 PP       0.063200
   6076 C2         34.3900   16.6600   50.7100 c3       676 PP      -0.006100
   6077 C1         35.0100   15.2400   51.0100 c3       676 PP       0.076800
   6078 CB         33.9600   14.2900   50.5700 c3       676 PP      -0.265900
   6079 H21        33.4000   16.6900   51.1800 hc       676 PP       0.001900
   6080 H22        34.1500   16.7600   49.6500 hc       676 PP       0.001900
   6081 H1         35.2300   15.1400   52.0800 hc       676 PP       0.001800
   6082 HB1        34.3400   13.2700   50.7300 hc       676 PP       0.063200
   6083 HB2        33.0700   14.3100   51.2100 hc       676 PP       0.063200
   6084 HB3        33.7400   14.4100   49.5000 hc       676 PP       0.063200
   6085 C2         36.2900   15.0200   50.0700 c3       677 PP      -0.006100
   6086 C1         37.6900   14.9000   50.8700 c3       677 PP       0.076800
   6087 CB         37.7800   13.5500   51.6000 c3       677 PP      -0.265900
   6088 H21        36.1000   14.1100   49.4800 hc       677 PP       0.001900
   6089 H22        36.2600   15.8300   49.3200 hc       677 PP       0.001900
   6090 H1         37.6500   15.6600   51.6500 hc       677 PP       0.001800
   6091 HB1        36.8100   13.2900   52.0400 hc       677 PP       0.063200
   6092 HB2        38.1500   12.7200   50.9900 hc       677 PP       0.063200
   6093 HB3        38.4100   13.6200   52.5000 hc       677 PP       0.063200
   6094 C2         38.9800   15.2900   50.1000 c3       678 PP      -0.006100
   6095 C1         40.3000   15.0800   50.9400 c3       678 PP       0.076800
   6096 CB         41.5500   15.1000   50.1000 c3       678 PP      -0.265900
   6097 H21        39.0000   14.6800   49.2000 hc       678 PP       0.001900
   6098 H22        38.9000   16.3300   49.7500 hc       678 PP       0.001900
   6099 H1         40.2500   14.0500   51.3200 hc       678 PP       0.001800
   6100 HB1        41.5600   14.1600   49.5500 hc       678 PP       0.063200
   6101 HB2        41.5600   15.9500   49.4000 hc       678 PP       0.063200
   6102 HB3        42.4100   15.0400   50.7800 hc       678 PP       0.063200
   6103 C2         40.3400   16.0500   52.1900 c3       679 PP      -0.006100
   6104 C1         40.3500   17.6000   51.9100 c3       679 PP       0.076800
   6105 CB         39.3100   18.3500   52.6400 c3       679 PP      -0.265900
   6106 H21        39.5600   15.8700   52.9500 hc       679 PP       0.001900
   6107 H22        41.1900   15.6700   52.7700 hc       679 PP       0.001900
   6108 H1         40.1500   17.7600   50.8400 hc       679 PP       0.001800
   6109 HB1        38.3000   18.0800   52.3200 hc       679 PP       0.063200
   6110 HB2        39.3800   18.1900   53.7200 hc       679 PP       0.063200
   6111 HB3        39.3300   19.4400   52.4700 hc       679 PP       0.063200
   6112 C2         41.7600   18.2100   52.3100 c3       680 PP      -0.006100
   6113 C1         42.8000   18.1300   51.1600 c3       680 PP       0.076800
   6114 CB         42.3000   18.8700   49.9700 c3       680 PP      -0.265900
   6115 H21        41.6700   19.2400   52.6500 hc       680 PP       0.001900
   6116 H22        42.0700   17.7700   53.2700 hc       680 PP       0.001900
   6117 H1         42.9200   17.0700   50.9100 hc       680 PP       0.001800
   6118 HB1        41.9600   19.8800   50.2000 hc       680 PP       0.063200
   6119 HB2        43.1100   19.2300   49.3200 hc       680 PP       0.063200
   6120 HB3        41.6400   18.2900   49.3200 hc       680 PP       0.063200
   6121 C2         44.1800   18.7100   51.7000 c3       681 PP      -0.006100
   6122 C1         45.4400   18.0000   51.2000 c3       681 PP       0.076800
   6123 CB         46.2300   18.9000   50.2000 c3       681 PP      -0.265900
   6124 H21        44.2000   19.7500   51.3300 hc       681 PP       0.001900
   6125 H22        44.1400   18.8300   52.7900 hc       681 PP       0.001900
   6126 H1         45.2400   17.1300   50.5700 hc       681 PP       0.001800
   6127 HB1        47.2100   18.4500   50.0100 hc       681 PP       0.063200
   6128 HB2        45.8400   18.8800   49.1700 hc       681 PP       0.063200
   6129 HB3        46.5100   19.9000   50.5400 hc       681 PP       0.063200
   6130 C2         46.3300   17.6500   52.4700 c3       682 PP      -0.006100
   6131 C1         45.6900   16.9000   53.6900 c3       682 PP       0.076800
   6132 CB         46.2600   15.4900   53.8600 c3       682 PP      -0.265900
   6133 H21        47.2700   17.1000   52.3400 hc       682 PP       0.001900
   6134 H22        46.5700   18.6600   52.8200 hc       682 PP       0.001900
   6135 H1         44.6300   16.7600   53.4800 hc       682 PP       0.001800
   6136 HB1        47.2900   15.4000   54.2400 hc       682 PP       0.063200
   6137 HB2        45.7400   14.8700   54.6000 hc       682 PP       0.063200
   6138 HB3        46.1900   15.0000   52.8900 hc       682 PP       0.063200
   6139 C2         45.8400   17.7200   55.0600 c3       683 PP      -0.006100
   6140 C1         45.3200   17.0900   56.3900 c3       683 PP       0.076800
   6141 CB         46.4300   16.1800   57.0900 c3       683 PP      -0.265900
   6142 H21        46.9000   17.9700   55.2300 hc       683 PP       0.001900
   6143 H22        45.4400   18.7400   55.0300 hc       683 PP       0.001900
   6144 H1         44.5700   16.3400   56.1000 hc       683 PP       0.001800
   6145 HB1        46.6400   15.2400   56.5700 hc       683 PP       0.063200
   6146 HB2        47.3700   16.7400   57.1000 hc       683 PP       0.063200
   6147 HB3        45.9400   16.0300   58.0700 hc       683 PP       0.063200
   6148 C2         44.5200   18.0600   57.3800 c3       684 PP      -0.006100
   6149 C1         43.3600   18.8700   56.7600 c3       684 PP       0.076800
   6150 CB         42.1100   18.0200   56.4000 c3       684 PP      -0.265900
   6151 H21        44.1700   17.4500   58.2200 hc       684 PP       0.001900
   6152 H22        45.2800   18.6800   57.8700 hc       684 PP       0.001900
   6153 H1         43.7800   19.3900   55.8900 hc       684 PP       0.001800
   6154 HB1        41.5000   18.5000   55.6200 hc       684 PP       0.063200
   6155 HB2        42.4500   17.1200   55.8800 hc       684 PP       0.063200
   6156 HB3        41.4800   17.7100   57.2300 hc       684 PP       0.063200
   6157 C2         43.0000   20.1600   57.6000 c3       685 PP      -0.006100
   6158 C1         41.8900   20.1200   58.6900 c3       685 PP       0.076800
   6159 CB         42.1100   19.0800   59.7700 c3       685 PP      -0.265900
   6160 H21        43.8900   20.4800   58.1700 hc       685 PP       0.001900
   6161 H22        42.7300   21.0000   56.9400 hc       685 PP       0.001900
   6162 H1         40.9700   19.8400   58.1800 hc       685 PP       0.001800
   6163 HB1        43.0300   19.3500   60.3100 hc       685 PP       0.063200
   6164 HB2        41.2500   19.0500   60.4600 hc       685 PP       0.063200
   6165 HB3        42.2300   18.1100   59.2700 hc       685 PP       0.063200
   6166 C2         41.5500   21.4600   59.3400 c3       686 PP      -0.006100
   6167 C1         41.3300   22.6300   58.3100 c3       686 PP       0.076800
   6168 CB         40.0700   22.4100   57.3800 c3       686 PP      -0.265900
   6169 H21        40.6300   21.5300   59.9200 hc       686 PP       0.001900
   6170 H22        42.3100   21.7200   60.0900 hc       686 PP       0.001900
   6171 H1         42.2100   22.7400   57.6600 hc       686 PP       0.001800
   6172 HB1        39.1400   22.4500   57.9600 hc       686 PP       0.063200
   6173 HB2        40.0300   23.2000   56.6200 hc       686 PP       0.063200
   6174 HB3        40.1500   21.4700   56.8200 hc       686 PP       0.063200
   6175 C2         40.9800   23.9800   59.1200 c3       687 PP      -0.006100
   6176 C1         42.0500   24.5100   60.0800 c3       687 PP       0.076800
   6177 CB         43.4500   24.5000   59.3900 c3       687 PP      -0.265900
   6178 H21        40.8600   24.7800   58.3800 hc       687 PP       0.001900
   6179 H22        40.0300   23.9000   59.6600 hc       687 PP       0.001900
   6180 H1         42.0400   23.7100   60.8300 hc       687 PP       0.001800
   6181 HB1        43.9000   23.5100   59.4500 hc       687 PP       0.063200
   6182 HB2        43.3500   24.6600   58.3100 hc       687 PP       0.063200
   6183 HB3        44.0400   25.3700   59.7000 hc       687 PP       0.063200
   6184 C2         41.6300   25.9900   60.7100 c3       688 PP      -0.006100
   6185 C1         40.2100   26.1300   61.3900 c3       688 PP       0.076800
   6186 CB         40.1100   25.2400   62.6700 c3       688 PP      -0.265900
   6187 H21        42.3300   26.2200   61.5200 hc       688 PP       0.001900
   6188 H22        41.7200   26.7700   59.9400 hc       688 PP       0.001900
   6189 H1         39.4700   25.7600   60.6700 hc       688 PP       0.001800
   6190 HB1        39.2900   25.6000   63.2900 hc       688 PP       0.063200
   6191 HB2        39.8600   24.2100   62.4000 hc       688 PP       0.063200
   6192 HB3        41.0700   25.1700   63.2000 hc       688 PP       0.063200
   6193 C2         39.9200   27.7100   61.6700 c3       689 PP      -0.006100
   6194 C1         38.4000   28.0700   61.2800 c3       689 PP       0.076800
   6195 CB         37.3900   27.5600   62.3000 c3       689 PP      -0.265900
   6196 H21        40.1400   27.9600   62.7100 hc       689 PP       0.001900
   6197 H22        40.5700   28.2700   60.9900 hc       689 PP       0.001900
   6198 H1         38.0700   27.6100   60.3400 hc       689 PP       0.001800
   6199 HB1        36.3700   27.8100   61.9900 hc       689 PP       0.063200
   6200 HB2        37.5700   26.4900   62.4600 hc       689 PP       0.063200
   6201 HB3        37.4600   27.9800   63.3100 hc       689 PP       0.063200
   6202 C2         38.1200   29.5100   61.0800 c3       690 PP      -0.006100
   6203 C1         38.8000   30.0900   59.8500 c3       690 PP       0.076800
   6204 CB         38.6200   31.6100   59.6100 c3       690 PP      -0.265900
   6205 H21        38.4600   30.0800   61.9600 hc       690 PP       0.001900
   6206 H22        37.0400   29.6300   60.9900 hc       690 PP       0.001900
   6207 H1         38.7400   29.6100   58.8700 hc       690 PP       0.001800
   6208 HB1        37.7300   31.8700   59.0300 hc       690 PP       0.063200
   6209 HB2        38.6300   32.1000   60.5900 hc       690 PP       0.063200
   6210 HB3        39.3700   32.1100   58.9800 hc       690 PP       0.063200
   6211 C2         72.7400   74.3200   58.2600 c3       691 PP      -0.006100
   6212 C1         71.3400   74.9100   57.7200 c3       691 PP       0.076800
   6213 CB         70.5300   75.3100   58.9600 c3       691 PP      -0.265900
   6214 H21        72.5600   73.7100   59.1500 hc       691 PP       0.001900
   6215 H22        73.1700   73.6100   57.5400 hc       691 PP       0.001900
   6216 H1         70.7700   74.1100   57.2300 hc       691 PP       0.001800
   6217 HB1        71.0800   75.9900   59.6100 hc       691 PP       0.063200
   6218 HB2        69.6500   75.7800   58.5000 hc       691 PP       0.063200
   6219 HB3        70.3000   74.4000   59.5300 hc       691 PP       0.063200
   6220 C2         71.6800   76.0700   56.7600 c3       692 PP      -0.006100
   6221 C1         72.2700   75.6400   55.4000 c3       692 PP       0.076800
   6222 CB         71.1500   75.1900   54.4400 c3       692 PP      -0.265900
   6223 H21        70.7700   76.6800   56.6900 hc       692 PP       0.001900
   6224 H22        72.4000   76.6500   57.3400 hc       692 PP       0.001900
   6225 H1         72.9200   74.7700   55.5800 hc       692 PP       0.001800
   6226 HB1        70.7100   74.2400   54.7700 hc       692 PP       0.063200
   6227 HB2        70.2900   75.8700   54.3800 hc       692 PP       0.063200
   6228 HB3        71.4500   75.1600   53.3800 hc       692 PP       0.063200
   6229 C2         73.1300   76.7600   54.7900 c3       693 PP      -0.006100
   6230 C1         74.6900   76.5800   54.6700 c3       693 PP       0.076800
   6231 CB         75.3600   77.9700   54.3400 c3       693 PP      -0.265900
   6232 H21        72.7600   77.0400   53.8000 hc       693 PP       0.001900
   6233 H22        73.0700   77.6200   55.4600 hc       693 PP       0.001900
   6234 H1         75.0100   75.9100   53.8700 hc       693 PP       0.001800
   6235 HB1        74.6700   78.4500   53.6300 hc       693 PP       0.063200
   6236 HB2        75.3700   78.5700   55.2600 hc       693 PP       0.063200
   6237 HB3        76.3400   77.8600   53.8800 hc       693 PP       0.063200
   6238 C2         75.4600   76.0400   55.9500 c3       694 PP      -0.006100
   6239 C1         75.8700   74.5200   56.0400 c3       694 PP       0.076800
   6240 CB         76.9800   74.2400   54.9400 c3       694 PP      -0.265900
   6241 H21        76.3400   76.6600   56.1600 hc       694 PP       0.001900
   6242 H22        74.8200   76.3300   56.7900 hc       694 PP       0.001900
   6243 H1         74.9800   73.9400   55.7700 hc       694 PP       0.001800
   6244 HB1        77.4500   73.2600   55.0400 hc       694 PP       0.063200
   6245 HB2        76.6300   74.3800   53.9100 hc       694 PP       0.063200
   6246 HB3        77.7500   75.0200   55.0000 hc       694 PP       0.063200
   6247 C2         76.1800   74.0300   57.4700 c3       695 PP      -0.006100
   6248 C1         76.8300   72.6300   57.6800 c3       695 PP       0.076800
   6249 CB         77.3400   72.4000   59.0400 c3       695 PP      -0.265900
   6250 H21        76.9100   74.7500   57.8700 hc       695 PP       0.001900
   6251 H22        75.3900   74.2700   58.1900 hc       695 PP       0.001900
   6252 H1         77.7600   72.5500   57.1000 hc       695 PP       0.001800
   6253 HB1        78.0200   73.2500   59.2200 hc       695 PP       0.063200
   6254 HB2        76.4700   72.4600   59.7000 hc       695 PP       0.063200
   6255 HB3        77.8400   71.4300   59.1700 hc       695 PP       0.063200
   6256 C2         75.8800   71.4900   57.2700 c3       696 PP      -0.006100
   6257 C1         76.5100   70.0000   57.1700 c3       696 PP       0.076800
   6258 CB         75.4000   69.0200   56.8600 c3       696 PP      -0.265900
   6259 H21        74.9500   71.4900   57.8400 hc       696 PP       0.001900
   6260 H22        75.5700   71.8400   56.2800 hc       696 PP       0.001900
   6261 H1         76.9700   69.6900   58.1100 hc       696 PP       0.001800
   6262 HB1        74.4900   69.2500   57.4200 hc       696 PP       0.063200
   6263 HB2        75.1900   68.9600   55.7900 hc       696 PP       0.063200
   6264 HB3        75.7400   67.9900   57.0600 hc       696 PP       0.063200
   6265 C2         77.6300   69.9400   56.0400 c3       697 PP      -0.006100
   6266 C1         79.1200   70.0400   56.5900 c3       697 PP       0.076800
   6267 CB         79.4600   68.8400   57.5500 c3       697 PP      -0.265900
   6268 H21        77.6500   69.0000   55.4600 hc       697 PP       0.001900
   6269 H22        77.3400   70.6600   55.2700 hc       697 PP       0.001900
   6270 H1         79.2700   70.9500   57.1900 hc       697 PP       0.001800
   6271 HB1        78.8100   68.8300   58.4300 hc       697 PP       0.063200
   6272 HB2        79.3100   67.8700   57.0600 hc       697 PP       0.063200
   6273 HB3        80.4300   68.8700   58.0600 hc       697 PP       0.063200
   6274 C2          0.1800   70.0300   55.4700 c3       698 PP      -0.006100
   6275 C1         -0.0500   71.1700   54.3300 c3       698 PP       0.076800
   6276 CB          0.1200   72.5900   54.9200 c3       698 PP      -0.265900
   6277 H21         1.0900   70.2800   56.0100 hc       698 PP       0.001900
   6278 H22         0.3100   69.0200   55.0500 hc       698 PP       0.001900
   6279 H1         -1.1200   71.0300   54.1000 hc       698 PP       0.001800
   6280 HB1        -0.4600   72.8300   55.8200 hc       698 PP       0.063200
   6281 HB2         1.1900   72.7000   55.1500 hc       698 PP       0.063200
   6282 HB3        -0.1500   73.3200   54.1400 hc       698 PP       0.063200
   6283 C2         80.7000   70.9000   52.9900 c3       699 PP      -0.006100
   6284 C1         79.7800   70.5400   51.7000 c3       699 PP       0.076800
   6285 CB         78.7500   69.4100   51.8800 c3       699 PP      -0.265900
   6286 H21        81.3100   71.7700   52.7300 hc       699 PP       0.001900
   6287 H22        81.3900   70.0600   53.1500 hc       699 PP       0.001900
   6288 H1         80.4800   70.1700   50.9400 hc       699 PP       0.001800
   6289 HB1        79.2300   68.4800   52.2200 hc       699 PP       0.063200
   6290 HB2        77.8600   69.6800   52.4700 hc       699 PP       0.063200
   6291 HB3        78.3600   69.2500   50.8700 hc       699 PP       0.063200
   6292 C2         -1.0300   71.8000   51.1900 c3       700 PP      -0.006100
   6293 C1         -0.1100   73.0500   50.9200 c3       700 PP       0.076800
   6294 CB          1.2500   72.8100   50.1200 c3       700 PP      -0.265900
   6295 H21        -1.4900   71.3800   50.2900 hc       700 PP       0.001900
   6296 H22        -1.8900   72.0100   51.8400 hc       700 PP       0.001900
   6297 H1          0.1300   73.4900   51.9000 hc       700 PP       0.001800
   6298 HB1         1.8700   73.7200   50.1000 hc       700 PP       0.063200
   6299 HB2         1.7900   72.0600   50.7200 hc       700 PP       0.063200
   6300 HB3         1.1700   72.6000   49.0500 hc       700 PP       0.063200
   6301 C2         79.0600   74.2700   50.1100 c3       701 PP      -0.006100
   6302 C1         78.3000   75.1400   51.1800 c3       701 PP       0.076800
   6303 CB         79.2700   75.7900   52.1600 c3       701 PP      -0.265900
   6304 H21        79.7300   74.9700   49.5900 hc       701 PP       0.001900
   6305 H22        78.4500   73.8500   49.3000 hc       701 PP       0.001900
   6306 H1         77.6600   74.5500   51.8500 hc       701 PP       0.001800
   6307 HB1        79.6300   75.1300   52.9600 hc       701 PP       0.063200
   6308 HB2        80.1700   76.1600   51.6500 hc       701 PP       0.063200
   6309 HB3        78.7800   76.6400   52.6500 hc       701 PP       0.063200
   6310 C2         77.3400   76.2800   50.5300 c3       702 PP      -0.006100
   6311 C1         75.8100   76.0500   50.8500 c3       702 PP       0.076800
   6312 CB         75.1500   77.3600   50.6200 c3       702 PP      -0.265900
   6313 H21        77.7500   77.2400   50.8700 hc       702 PP       0.001900
   6314 H22        77.4800   76.2100   49.4400 hc       702 PP       0.001900
   6315 H1         75.7300   75.8700   51.9300 hc       702 PP       0.001800
   6316 HB1        75.3800   78.0000   51.4900 hc       702 PP       0.063200
   6317 HB2        75.4300   77.9000   49.7100 hc       702 PP       0.063200
   6318 HB3        74.0500   77.3500   50.6600 hc       702 PP       0.063200
   6319 C2         75.1600   74.9300   49.9400 c3       703 PP      -0.006100
   6320 C1         74.1100   74.0400   50.7000 c3       703 PP       0.076800
   6321 CB         72.8800   73.7300   49.8300 c3       703 PP      -0.265900
   6322 H21        74.7400   75.4500   49.0700 hc       703 PP       0.001900
   6323 H22        75.9200   74.1900   49.6300 hc       703 PP       0.001900
   6324 H1         73.8700   74.4700   51.6800 hc       703 PP       0.001800
   6325 HB1        72.5300   74.6300   49.3200 hc       703 PP       0.063200
   6326 HB2        73.1500   73.0000   49.0500 hc       703 PP       0.063200
   6327 HB3        71.9600   73.4500   50.3600 hc       703 PP       0.063200
   6328 C2         74.8800   72.7400   51.1300 c3       704 PP      -0.006100
   6329 C1         74.0500   71.5600   51.7100 c3       704 PP       0.076800
   6330 CB         75.0000   70.5000   52.4500 c3       704 PP      -0.265900
   6331 H21        75.4400   72.4100   50.2500 hc       704 PP       0.001900
   6332 H22        75.5400   73.0800   51.9300 hc       704 PP       0.001900
   6333 H1         73.5200   71.0900   50.8700 hc       704 PP       0.001800
   6334 HB1        75.9500   70.2600   51.9500 hc       704 PP       0.063200
   6335 HB2        75.2500   70.7600   53.4800 hc       704 PP       0.063200
   6336 HB3        74.5300   69.5100   52.5500 hc       704 PP       0.063200
   6337 C2         72.9700   71.9600   52.8600 c3       705 PP      -0.006100
   6338 C1         72.1100   70.7700   53.3600 c3       705 PP       0.076800
   6339 CB         72.7200   70.2600   54.6800 c3       705 PP      -0.265900
   6340 H21        73.5400   72.3700   53.7100 hc       705 PP       0.001900
   6341 H22        72.3000   72.7700   52.5300 hc       705 PP       0.001900
   6342 H1         72.1800   69.9300   52.6600 hc       705 PP       0.001800
   6343 HB1        73.5800   70.8600   54.9900 hc       705 PP       0.063200
   6344 HB2        72.0400   70.0100   55.5000 hc       705 PP       0.063200
   6345 HB3        73.2500   69.3300   54.4300 hc       705 PP       0.063200
   6346 C2         70.5800   71.0300   53.4800 c3       706 PP      -0.006100
   6347 C1         69.9500   71.0100   52.0600 c3       706 PP       0.076800
   6348 CB         69.8600   69.5300   51.4900 c3       706 PP      -0.265900
   6349 H21        70.0600   70.3400   54.1500 hc       706 PP       0.001900
   6350 H22        70.4800   72.0200   53.9500 hc       706 PP       0.001900
   6351 H1         70.6700   71.5300   51.4300 hc       706 PP       0.001800
   6352 HB1        69.4300   69.6000   50.4800 hc       706 PP       0.063200
   6353 HB2        70.7400   68.8800   51.4200 hc       706 PP       0.063200
   6354 HB3        69.0800   69.0400   52.0800 hc       706 PP       0.063200
   6355 C2         68.5600   71.7700   51.9400 c3       707 PP      -0.006100
   6356 C1         68.2500   72.4700   50.6100 c3       707 PP       0.076800
   6357 CB         66.7200   72.2300   50.1900 c3       707 PP      -0.265900
   6358 H21        67.8500   70.9400   52.0200 hc       707 PP       0.001900
   6359 H22        68.3900   72.5500   52.6900 hc       707 PP       0.001900
   6360 H1         68.9100   72.0500   49.8500 hc       707 PP       0.001800
   6361 HB1        66.5400   71.1800   49.9600 hc       707 PP       0.063200
   6362 HB2        66.0600   72.4800   51.0300 hc       707 PP       0.063200
   6363 HB3        66.5000   72.8500   49.3100 hc       707 PP       0.063200
   6364 C2         68.7500   73.9700   50.6000 c3       708 PP      -0.006100
   6365 C1         67.7000   75.0200   51.0300 c3       708 PP       0.076800
   6366 CB         67.6500   75.2100   52.5900 c3       708 PP      -0.265900
   6367 H21        69.6900   74.0200   51.1700 hc       708 PP       0.001900
   6368 H22        69.1000   74.1300   49.5700 hc       708 PP       0.001900
   6369 H1         66.6800   74.8500   50.6600 hc       708 PP       0.001800
   6370 HB1        68.7000   75.1000   52.8700 hc       708 PP       0.063200
   6371 HB2        67.2700   76.1700   52.9600 hc       708 PP       0.063200
   6372 HB3        67.0800   74.4100   53.0800 hc       708 PP       0.063200
   6373 C2         68.1800   76.5000   50.5500 c3       709 PP      -0.006100
   6374 C1         69.3800   77.2100   51.1900 c3       709 PP       0.076800
   6375 CB         70.8000   76.7000   50.7200 c3       709 PP      -0.265900
   6376 H21        68.3900   76.4600   49.4800 hc       709 PP       0.001900
   6377 H22        67.3100   77.1400   50.7600 hc       709 PP       0.001900
   6378 H1         69.3400   77.0700   52.2800 hc       709 PP       0.001800
   6379 HB1        70.9600   76.7000   49.6400 hc       709 PP       0.063200
   6380 HB2        71.4700   77.4600   51.1400 hc       709 PP       0.063200
   6381 HB3        71.1000   75.7400   51.1500 hc       709 PP       0.063200
   6382 C2         69.1600   78.7400   50.8300 c3       710 PP      -0.006100
   6383 C1         70.3500   79.7600   51.2300 c3       710 PP       0.076800
   6384 CB         69.9200   81.2300   50.9500 c3       710 PP      -0.265900
   6385 H21        68.9500   78.8900   49.7600 hc       710 PP       0.001900
   6386 H22        68.2500   79.1100   51.3200 hc       710 PP       0.001900
   6387 H1         71.1900   79.5500   50.5500 hc       710 PP       0.001800
   6388 HB1        69.0300   81.4700   51.5500 hc       710 PP       0.063200
   6389 HB2        70.7600   81.9400   51.0200 hc       710 PP       0.063200
   6390 HB3        69.7700   81.3100   49.8700 hc       710 PP       0.063200
   6391 C2         70.8100   -0.4900   52.7400 c3       711 PP      -0.006100
   6392 C1         72.0000    0.5300   53.2400 c3       711 PP       0.076800
   6393 CB         73.1200    0.7700   52.1100 c3       711 PP      -0.265900
   6394 H21        70.0200   -0.4300   53.4900 hc       711 PP       0.001900
   6395 H22        71.1900   -1.5100   52.8800 hc       711 PP       0.001900
   6396 H1         72.6000    0.0700   54.0400 hc       711 PP       0.001800
   6397 HB1        73.9500    1.3200   52.5700 hc       711 PP       0.063200
   6398 HB2        73.4700   -0.1500   51.6400 hc       711 PP       0.063200
   6399 HB3        72.7100    1.3600   51.2800 hc       711 PP       0.063200
   6400 C2         71.5400    1.8700   53.8700 c3       712 PP      -0.006100
   6401 C1         70.9000    1.6400   55.3300 c3       712 PP       0.076800
   6402 CB         72.0300    1.8000   56.3800 c3       712 PP      -0.265900
   6403 H21        72.3100    2.6500   53.8400 hc       712 PP       0.001900
   6404 H22        70.7300    2.2700   53.2500 hc       712 PP       0.001900
   6405 H1         70.4200    0.6700   55.5200 hc       712 PP       0.001800
   6406 HB1        72.7800    1.0100   56.3000 hc       712 PP       0.063200
   6407 HB2        72.5900    2.7300   56.2500 hc       712 PP       0.063200
   6408 HB3        71.5500    1.6300   57.3500 hc       712 PP       0.063200
   6409 C2         69.8700    2.7800   55.5800 c3       713 PP      -0.006100
   6410 C1         68.4000    2.4700   55.2400 c3       713 PP       0.076800
   6411 CB         67.7900    1.8800   56.5300 c3       713 PP      -0.265900
   6412 H21        69.9500    3.2700   56.5600 hc       713 PP       0.001900
   6413 H22        70.1900    3.5700   54.8900 hc       713 PP       0.001900
   6414 H1         68.3900    1.7700   54.3900 hc       713 PP       0.001800
   6415 HB1        67.5600    2.6800   57.2500 hc       713 PP       0.063200
   6416 HB2        66.8300    1.3700   56.4100 hc       713 PP       0.063200
   6417 HB3        68.4900    1.1700   56.9900 hc       713 PP       0.063200
   6418 C2         67.6900    3.7700   54.8300 c3       714 PP      -0.006100
   6419 C1         66.1700    3.6000   54.4600 c3       714 PP       0.076800
   6420 CB         65.5000    4.9800   54.4900 c3       714 PP      -0.265900
   6421 H21        67.8000    4.4900   55.6500 hc       714 PP       0.001900
   6422 H22        68.2500    4.2100   53.9900 hc       714 PP       0.001900
   6423 H1         65.6400    2.9200   55.1400 hc       714 PP       0.001800
   6424 HB1        66.2700    5.7400   54.2600 hc       714 PP       0.063200
   6425 HB2        64.6500    5.1400   53.8200 hc       714 PP       0.063200
   6426 HB3        65.0000    5.1300   55.4500 hc       714 PP       0.063200
   6427 C2         66.0600    2.9500   53.0500 c3       715 PP      -0.006100
   6428 C1         64.9600    1.8400   52.8500 c3       715 PP       0.076800
   6429 CB         63.5300    2.4400   52.7200 c3       715 PP      -0.265900
   6430 H21        65.8100    3.6800   52.2700 hc       715 PP       0.001900
   6431 H22        67.0500    2.6000   52.7200 hc       715 PP       0.001900
   6432 H1         64.9900    1.2000   53.7400 hc       715 PP       0.001800
   6433 HB1        63.2800    2.6000   51.6700 hc       715 PP       0.063200
   6434 HB2        62.7800    1.8100   53.2100 hc       715 PP       0.063200
   6435 HB3        63.4300    3.4500   53.1300 hc       715 PP       0.063200
   6436 C2         65.3600    0.9500   51.5600 c3       716 PP      -0.006100
   6437 C1         64.5100   -0.2100   51.2400 c3       716 PP       0.076800
   6438 CB         64.8500   -0.7000   49.7300 c3       716 PP      -0.265900
   6439 H21        65.3000    1.7100   50.7700 hc       716 PP       0.001900
   6440 H22        66.4100    0.6300   51.6300 hc       716 PP       0.001900
   6441 H1         63.4700    0.1300   51.3600 hc       716 PP       0.001800
   6442 HB1        64.1000   -1.4600   49.4600 hc       716 PP       0.063200
   6443 HB2        64.6200    0.1100   49.0200 hc       716 PP       0.063200
   6444 HB3        65.8600   -1.0300   49.4500 hc       716 PP       0.063200
   6445 C2         64.7500   78.5600   52.2700 c3       717 PP      -0.006100
   6446 C1         63.7100   77.3800   52.2100 c3       717 PP       0.076800
   6447 CB         64.2200   76.2700   51.3100 c3       717 PP      -0.265900
   6448 H21        65.7500   78.1600   52.0600 hc       717 PP       0.001900
   6449 H22        64.8600   78.9600   53.2900 hc       717 PP       0.001900
   6450 H1         62.8200   77.8400   51.7600 hc       717 PP       0.001800
   6451 HB1        63.3100   75.8800   50.8300 hc       717 PP       0.063200
   6452 HB2        64.7500   76.5800   50.4100 hc       717 PP       0.063200
   6453 HB3        64.7500   75.5000   51.8900 hc       717 PP       0.063200
   6454 C2         63.3200   76.8500   53.6200 c3       718 PP      -0.006100
   6455 C1         62.5500   75.4800   53.6200 c3       718 PP       0.076800
   6456 CB         62.3900   75.0300   55.0600 c3       718 PP      -0.265900
   6457 H21        64.2200   76.6600   54.2100 hc       718 PP       0.001900
   6458 H22        62.7500   77.6600   54.1000 hc       718 PP       0.001900
   6459 H1         63.2200   74.7800   53.1100 hc       718 PP       0.001800
   6460 HB1        63.4200   75.1900   55.3900 hc       718 PP       0.063200
   6461 HB2        61.6400   75.5400   55.6800 hc       718 PP       0.063200
   6462 HB3        62.0600   73.9800   54.9700 hc       718 PP       0.063200
   6463 C2         61.1300   75.5800   52.9500 c3       719 PP      -0.006100
   6464 C1         60.2600   74.3500   52.5200 c3       719 PP       0.076800
   6465 CB         58.8600   74.8900   52.1000 c3       719 PP      -0.265900
   6466 H21        60.5500   76.3000   53.5400 hc       719 PP       0.001900
   6467 H22        61.2600   76.1700   52.0300 hc       719 PP       0.001900
   6468 H1         60.2200   73.6300   53.3400 hc       719 PP       0.001800
   6469 HB1        58.1300   75.0400   52.9100 hc       719 PP       0.063200
   6470 HB2        58.9400   75.9100   51.7100 hc       719 PP       0.063200
   6471 HB3        58.3000   74.3400   51.3300 hc       719 PP       0.063200
   6472 C2         60.7800   73.7200   51.2100 c3       720 PP      -0.006100
   6473 C1         62.1600   73.0000   51.4400 c3       720 PP       0.076800
   6474 CB         62.8600   72.4900   50.1400 c3       720 PP      -0.265900
   6475 H21        60.8600   74.5200   50.4700 hc       720 PP       0.001900
   6476 H22        60.0800   72.9300   50.9100 hc       720 PP       0.001900
   6477 H1         61.9400   72.2100   52.1700 hc       720 PP       0.001800
   6478 HB1        63.6600   71.7800   50.3600 hc       720 PP       0.063200
   6479 HB2        62.0900   71.9700   49.5600 hc       720 PP       0.063200
   6480 HB3        63.3800   73.2800   49.5700 hc       720 PP       0.063200
   6481 C2         23.9500    9.0900   59.5000 c3       721 PP      -0.006100
   6482 C1         22.9200   10.2600   59.2800 c3       721 PP       0.076800
   6483 CB         21.5000    9.8300   59.4700 c3       721 PP      -0.265900
   6484 H21        24.9600    9.4600   59.2900 hc       721 PP       0.001900
   6485 H22        23.8900    8.8200   60.5600 hc       721 PP       0.001900
   6486 H1         23.0300   10.5300   58.2200 hc       721 PP       0.001800
   6487 HB1        20.7700   10.5400   59.0800 hc       721 PP       0.063200
   6488 HB2        21.2700    8.8300   59.0600 hc       721 PP       0.063200
   6489 HB3        21.2600    9.8300   60.5400 hc       721 PP       0.063200
   6490 C2         23.2600   11.4600   60.2200 c3       722 PP      -0.006100
   6491 C1         23.1700   12.9200   59.4600 c3       722 PP       0.076800
   6492 CB         23.0900   14.0400   60.5500 c3       722 PP      -0.265900
   6493 H21        22.6500   11.4400   61.1300 hc       722 PP       0.001900
   6494 H22        24.3200   11.3700   60.4900 hc       722 PP       0.001900
   6495 H1         22.2700   12.9500   58.8400 hc       722 PP       0.001800
   6496 HB1        22.2800   13.7500   61.2400 hc       722 PP       0.063200
   6497 HB2        24.0000   14.1100   61.1600 hc       722 PP       0.063200
   6498 HB3        22.8600   15.0600   60.2300 hc       722 PP       0.063200
   6499 C2         24.3900   13.0400   58.5100 c3       723 PP      -0.006100
   6500 C1         24.1200   13.9800   57.3100 c3       723 PP       0.076800
   6501 CB         25.3800   14.9200   57.0800 c3       723 PP      -0.265900
   6502 H21        25.2600   13.3400   59.1100 hc       723 PP       0.001900
   6503 H22        24.7100   12.0700   58.1200 hc       723 PP       0.001900
   6504 H1         23.3900   14.7000   57.7000 hc       723 PP       0.001800
   6505 HB1        25.3800   15.8300   57.6900 hc       723 PP       0.063200
   6506 HB2        26.3300   14.3800   57.1600 hc       723 PP       0.063200
   6507 HB3        25.2700   15.4400   56.1200 hc       723 PP       0.063200
   6508 C2         23.6800   13.2700   56.0400 c3       724 PP      -0.006100
   6509 C1         22.2200   13.6200   55.6800 c3       724 PP       0.076800
   6510 CB         22.1600   15.0000   55.0900 c3       724 PP      -0.265900
   6511 H21        24.3700   13.3700   55.2000 hc       724 PP       0.001900
   6512 H22        23.7200   12.1800   56.2300 hc       724 PP       0.001900
   6513 H1         21.6100   13.6500   56.5900 hc       724 PP       0.001800
   6514 HB1        21.3100   15.1600   54.4200 hc       724 PP       0.063200
   6515 HB2        22.1200   15.7300   55.9100 hc       724 PP       0.063200
   6516 HB3        23.0900   15.2200   54.5400 hc       724 PP       0.063200
   6517 C2         21.5800   12.5400   54.7200 c3       725 PP      -0.006100
   6518 C1         20.0200   12.4900   54.7800 c3       725 PP       0.076800
   6519 CB         19.5400   11.6800   53.5700 c3       725 PP      -0.265900
   6520 H21        22.0600   12.6800   53.7400 hc       725 PP       0.001900
   6521 H22        22.0400   11.5900   55.0300 hc       725 PP       0.001900
   6522 H1         19.6300   13.5100   54.7100 hc       725 PP       0.001800
   6523 HB1        18.6400   12.1500   53.1500 hc       725 PP       0.063200
   6524 HB2        20.2900   11.6000   52.7700 hc       725 PP       0.063200
   6525 HB3        19.1900   10.6400   53.6700 hc       725 PP       0.063200
   6526 C2         19.5700   11.8600   56.2300 c3       726 PP      -0.006100
   6527 C1         18.1300   11.2800   56.2800 c3       726 PP       0.076800
   6528 CB         18.1000   10.2100   57.4100 c3       726 PP      -0.265900
   6529 H21        20.2500   11.0700   56.5700 hc       726 PP       0.001900
   6530 H22        19.6800   12.7300   56.8800 hc       726 PP       0.001900
   6531 H1         17.8300   10.9300   55.2900 hc       726 PP       0.001800
   6532 HB1        17.0900    9.7900   57.3600 hc       726 PP       0.063200
   6533 HB2        18.8600    9.4300   57.2800 hc       726 PP       0.063200
   6534 HB3        18.2000   10.6300   58.4200 hc       726 PP       0.063200
   6535 C2         17.1300   12.5100   56.5300 c3       727 PP      -0.006100
   6536 C1         15.6900   12.0800   56.0600 c3       727 PP       0.076800
   6537 CB         14.6600   12.8900   56.8800 c3       727 PP      -0.265900
   6538 H21        17.0900   12.7500   57.6000 hc       727 PP       0.001900
   6539 H22        17.5200   13.4100   56.0600 hc       727 PP       0.001900
   6540 H1         15.5400   11.0600   56.4200 hc       727 PP       0.001800
   6541 HB1        14.8400   12.6800   57.9400 hc       727 PP       0.063200
   6542 HB2        14.7000   13.9800   56.7100 hc       727 PP       0.063200
   6543 HB3        13.6100   12.6600   56.6400 hc       727 PP       0.063200
   6544 C2         15.3300   12.3800   54.5700 c3       728 PP      -0.006100
   6545 C1         15.0900   11.0700   53.7300 c3       728 PP       0.076800
   6546 CB         13.7400   10.5000   54.1800 c3       728 PP      -0.265900
   6547 H21        14.5600   13.1100   54.3000 hc       728 PP       0.001900
   6548 H22        16.2400   12.8400   54.1600 hc       728 PP       0.001900
   6549 H1         15.8400   10.3600   54.1000 hc       728 PP       0.001800
   6550 HB1        13.5200   10.6900   55.2400 hc       728 PP       0.063200
   6551 HB2        12.8700   10.9300   53.6700 hc       728 PP       0.063200
   6552 HB3        13.7100    9.4300   53.9500 hc       728 PP       0.063200
   6553 C2         15.0500   11.3200   52.1800 c3       729 PP      -0.006100
   6554 C1         15.6000   10.0700   51.4600 c3       729 PP       0.076800
   6555 CB         15.0900   10.2500   49.9800 c3       729 PP      -0.265900
   6556 H21        14.0400   11.7100   52.0500 hc       729 PP       0.001900
   6557 H22        15.6800   12.1900   51.9500 hc       729 PP       0.001900
   6558 H1         15.1500    9.1600   51.8700 hc       729 PP       0.001800
   6559 HB1        15.5200   11.1800   49.5900 hc       729 PP       0.063200
   6560 HB2        15.3400    9.3200   49.4700 hc       729 PP       0.063200
   6561 HB3        14.0000   10.3400   49.8700 hc       729 PP       0.063200
   6562 C2         17.1700    9.9700   51.5700 c3       730 PP      -0.006100
   6563 C1         17.7800    8.7300   50.9500 c3       730 PP       0.076800
   6564 CB         18.8200    9.2100   49.9500 c3       730 PP      -0.265900
   6565 H21        17.6200   10.8900   51.1700 hc       730 PP       0.001900
   6566 H22        17.4100   10.1200   52.6300 hc       730 PP       0.001900
   6567 H1         16.9600    8.2400   50.4100 hc       730 PP       0.001800
   6568 HB1        19.6900    9.5900   50.5000 hc       730 PP       0.063200
   6569 HB2        19.0300    8.4200   49.2300 hc       730 PP       0.063200
   6570 HB3        18.3900   10.0000   49.3200 hc       730 PP       0.063200
   6571 C2         18.4000    7.7600   51.9700 c3       731 PP      -0.006100
   6572 C1         17.4300    7.2100   53.1400 c3       731 PP       0.076800
   6573 CB         16.1700    6.3800   52.6000 c3       731 PP      -0.265900
   6574 H21        18.8700    6.8600   51.5400 hc       731 PP       0.001900
   6575 H22        19.1900    8.2500   52.5500 hc       731 PP       0.001900
   6576 H1         17.0300    8.0900   53.6600 hc       731 PP       0.001800
   6577 HB1        15.7600    5.7200   53.3700 hc       731 PP       0.063200
   6578 HB2        15.3700    7.1100   52.4200 hc       731 PP       0.063200
   6579 HB3        16.4400    5.8700   51.6700 hc       731 PP       0.063200
   6580 C2         18.2600    6.4300   54.2500 c3       732 PP      -0.006100
   6581 C1         18.0700    6.8000   55.6800 c3       732 PP       0.076800
   6582 CB         16.6000    6.8900   56.0900 c3       732 PP      -0.265900
   6583 H21        18.0800    5.3600   54.0800 hc       732 PP       0.001900
   6584 H22        19.3100    6.4900   53.9500 hc       732 PP       0.001900
   6585 H1         18.4500    7.8200   55.8100 hc       732 PP       0.001800
   6586 HB1        16.0200    6.0000   55.8000 hc       732 PP       0.063200
   6587 HB2        16.5400    6.8700   57.1800 hc       732 PP       0.063200
   6588 HB3        16.1300    7.7600   55.6100 hc       732 PP       0.063200
   6589 C2         18.8200    5.8100   56.6000 c3       733 PP      -0.006100
   6590 C1         20.3500    5.7200   56.3100 c3       733 PP       0.076800
   6591 CB         21.0700    7.0100   56.6400 c3       733 PP      -0.265900
   6592 H21        18.7100    6.1100   57.6500 hc       733 PP       0.001900
   6593 H22        18.4300    4.7900   56.5200 hc       733 PP       0.001900
   6594 H1         20.5700    5.3700   55.2900 hc       733 PP       0.001800
   6595 HB1        20.7300    7.3900   57.6100 hc       733 PP       0.063200
   6596 HB2        22.1700    7.0000   56.7000 hc       733 PP       0.063200
   6597 HB3        20.8000    7.8000   55.9200 hc       733 PP       0.063200
   6598 C2         20.9400    4.5300   57.0900 c3       734 PP      -0.006100
   6599 C1         20.4200    3.1300   56.7400 c3       734 PP       0.076800
   6600 CB         20.5400    2.8000   55.2000 c3       734 PP      -0.265900
   6601 H21        21.9800    4.4700   56.7700 hc       734 PP       0.001900
   6602 H22        20.9000    4.8200   58.1500 hc       734 PP       0.001900
   6603 H1         19.3600    2.9300   56.9600 hc       734 PP       0.001800
   6604 HB1        20.4600    1.7400   54.9200 hc       734 PP       0.063200
   6605 HB2        19.7100    3.3200   54.7100 hc       734 PP       0.063200
   6606 HB3        21.4100    3.3400   54.8200 hc       734 PP       0.063200
   6607 C2         21.2300    2.0800   57.5300 c3       735 PP      -0.006100
   6608 C1         20.6100    2.0000   58.9700 c3       735 PP       0.076800
   6609 CB         19.4700    0.9300   58.9400 c3       735 PP      -0.265900
   6610 H21        21.2700    1.1300   56.9900 hc       735 PP       0.001900
   6611 H22        22.2800    2.3900   57.5600 hc       735 PP       0.001900
   6612 H1         20.1900    2.9900   59.1900 hc       735 PP       0.001800
   6613 HB1        18.7400    1.0600   58.1300 hc       735 PP       0.063200
   6614 HB2        19.7500   -0.1200   58.7700 hc       735 PP       0.063200
   6615 HB3        18.7900    0.9800   59.8000 hc       735 PP       0.063200
   6616 C2         21.6400    1.6200   60.1000 c3       736 PP      -0.006100
   6617 C1         22.7700    2.5300   60.4800 c3       736 PP       0.076800
   6618 CB         22.2700    3.8800   60.9200 c3       736 PP      -0.265900
   6619 H21        21.0600    1.3900   61.0000 hc       736 PP       0.001900
   6620 H22        22.0100    0.6100   59.8500 hc       736 PP       0.001900
   6621 H1         23.4100    2.6400   59.6000 hc       736 PP       0.001800
   6622 HB1        21.5200    3.7000   61.7000 hc       736 PP       0.063200
   6623 HB2        23.1100    4.2500   61.5000 hc       736 PP       0.063200
   6624 HB3        21.9000    4.6000   60.1800 hc       736 PP       0.063200
   6625 C2         23.7800    1.8900   61.5300 c3       737 PP      -0.006100
   6626 C1         25.0500    2.6700   61.9500 c3       737 PP       0.076800
   6627 CB         25.8700    1.9300   62.9400 c3       737 PP      -0.265900
   6628 H21        23.1900    1.7500   62.4400 hc       737 PP       0.001900
   6629 H22        24.1300    0.8700   61.2800 hc       737 PP       0.001900
   6630 H1         24.6400    3.4700   62.5800 hc       737 PP       0.001800
   6631 HB1        26.0600    0.9000   62.6200 hc       737 PP       0.063200
   6632 HB2        26.8600    2.3800   63.0700 hc       737 PP       0.063200
   6633 HB3        25.3800    1.8600   63.9200 hc       737 PP       0.063200
   6634 C2         25.9400    3.2600   60.7100 c3       738 PP      -0.006100
   6635 C1         26.1600    4.7800   60.7600 c3       738 PP       0.076800
   6636 CB         27.0000    5.2400   62.0400 c3       738 PP      -0.265900
   6637 H21        26.9500    2.8800   60.8600 hc       738 PP       0.001900
   6638 H22        25.5300    2.8500   59.7700 hc       738 PP       0.001900
   6639 H1         25.1800    5.2300   60.9700 hc       738 PP       0.001800
   6640 HB1        26.4500    4.9700   62.9500 hc       738 PP       0.063200
   6641 HB2        27.9400    4.6900   62.1900 hc       738 PP       0.063200
   6642 HB3        27.2200    6.3100   61.9800 hc       738 PP       0.063200
   6643 C2         26.6300    5.3300   59.4700 c3       739 PP      -0.006100
   6644 C1         25.9400    4.9900   58.1200 c3       739 PP       0.076800
   6645 CB         24.4700    5.3700   57.9900 c3       739 PP      -0.265900
   6646 H21        26.5400    6.4100   59.6500 hc       739 PP       0.001900
   6647 H22        27.7100    5.1400   59.4000 hc       739 PP       0.001900
   6648 H1         26.0400    3.9000   58.0300 hc       739 PP       0.001800
   6649 HB1        23.8600    4.6900   58.6000 hc       739 PP       0.063200
   6650 HB2        24.2300    6.4200   58.2000 hc       739 PP       0.063200
   6651 HB3        24.1300    5.2800   56.9600 hc       739 PP       0.063200
   6652 C2         26.7600    5.4700   56.8400 c3       740 PP      -0.006100
   6653 C1         26.7500    4.3800   55.6600 c3       740 PP       0.076800
   6654 CB         25.8400    4.9100   54.5100 c3       740 PP      -0.265900
   6655 H21        26.2100    6.3700   56.5300 hc       740 PP       0.001900
   6656 H22        27.7200    5.8800   57.1800 hc       740 PP       0.001900
   6657 H1         26.2400    3.5100   56.0600 hc       740 PP       0.001800
   6658 HB1        24.8200    4.8000   54.9000 hc       740 PP       0.063200
   6659 HB2        26.0400    5.9300   54.1600 hc       740 PP       0.063200
   6660 HB3        25.9500    4.3400   53.5800 hc       740 PP       0.063200
   6661 C2         28.2700    4.1600   55.2400 c3       741 PP      -0.006100
   6662 C1         29.1900    3.4200   56.3400 c3       741 PP       0.076800
   6663 CB         28.4900    2.2200   56.9000 c3       741 PP      -0.265900
   6664 H21        28.3600    3.5300   54.3400 hc       741 PP       0.001900
   6665 H22        28.7500    5.1300   55.0800 hc       741 PP       0.001900
   6666 H1         29.4000    4.0800   57.1900 hc       741 PP       0.001800
   6667 HB1        28.0500    1.5100   56.1800 hc       741 PP       0.063200
   6668 HB2        29.2500    1.7100   57.5000 hc       741 PP       0.063200
   6669 HB3        27.6800    2.4900   57.5900 hc       741 PP       0.063200
   6670 C2         30.5200    3.0100   55.6400 c3       742 PP      -0.006100
   6671 C1         31.5500    4.2500   55.5700 c3       742 PP       0.076800
   6672 CB         32.3300    4.2900   56.8400 c3       742 PP      -0.265900
   6673 H21        31.1700    2.2600   56.1100 hc       742 PP       0.001900
   6674 H22        30.2800    2.7100   54.6200 hc       742 PP       0.001900
   6675 H1         30.9700    5.1800   55.6800 hc       742 PP       0.001800
   6676 HB1        33.1300    3.5500   56.9400 hc       742 PP       0.063200
   6677 HB2        32.7900    5.2900   56.8900 hc       742 PP       0.063200
   6678 HB3        31.6600    4.1200   57.6900 hc       742 PP       0.063200
   6679 C2         32.3500    4.2600   54.3000 c3       743 PP      -0.006100
   6680 C1         32.1800    5.5900   53.4600 c3       743 PP       0.076800
   6681 CB         33.0900    6.6800   53.9000 c3       743 PP      -0.265900
   6682 H21        33.3900    3.9600   54.5000 hc       743 PP       0.001900
   6683 H22        31.9500    3.4500   53.6800 hc       743 PP       0.001900
   6684 H1         31.1500    5.8200   53.7600 hc       743 PP       0.001800
   6685 HB1        34.1300    6.7400   53.5400 hc       743 PP       0.063200
   6686 HB2        32.5400    7.5900   53.6400 hc       743 PP       0.063200
   6687 HB3        33.0700    6.7200   55.0000 hc       743 PP       0.063200
   6688 C2         32.2900    5.2700   51.9500 c3       744 PP      -0.006100
   6689 C1         31.7800    6.3000   50.8500 c3       744 PP       0.076800
   6690 CB         32.9800    6.8900   49.9900 c3       744 PP      -0.265900
   6691 H21        33.3800    5.2700   51.7900 hc       744 PP       0.001900
   6692 H22        31.9600    4.2400   51.7500 hc       744 PP       0.001900
   6693 H1         31.3200    7.0600   51.4900 hc       744 PP       0.001800
   6694 HB1        33.6600    7.5100   50.5900 hc       744 PP       0.063200
   6695 HB2        33.4400    6.0800   49.4200 hc       744 PP       0.063200
   6696 HB3        32.5700    7.6000   49.2600 hc       744 PP       0.063200
   6697 C2         30.5800    5.7400   50.0000 c3       745 PP      -0.006100
   6698 C1         29.3000    5.2800   50.8300 c3       745 PP       0.076800
   6699 CB         28.3900    6.5100   51.0900 c3       745 PP      -0.265900
   6700 H21        30.3000    6.5300   49.2900 hc       745 PP       0.001900
   6701 H22        30.7900    4.9800   49.2400 hc       745 PP       0.001900
   6702 H1         29.6400    4.9100   51.8100 hc       745 PP       0.001800
   6703 HB1        27.6600    6.1700   51.8300 hc       745 PP       0.063200
   6704 HB2        28.8600    7.4400   51.4400 hc       745 PP       0.063200
   6705 HB3        27.9900    6.7200   50.0900 hc       745 PP       0.063200
   6706 C2         28.4800    4.2100   50.0300 c3       746 PP      -0.006100
   6707 C1         27.3400    3.6300   50.8300 c3       746 PP       0.076800
   6708 CB         25.9800    4.2200   50.4600 c3       746 PP      -0.265900
   6709 H21        28.1800    4.6600   49.0800 hc       746 PP       0.001900
   6710 H22        29.1600    3.4500   49.6200 hc       746 PP       0.001900
   6711 H1         27.3700    3.9200   51.8900 hc       746 PP       0.001800
   6712 HB1        26.0000    5.1900   49.9500 hc       746 PP       0.063200
   6713 HB2        25.4400    3.5200   49.8200 hc       746 PP       0.063200
   6714 HB3        25.4700    4.3200   51.4300 hc       746 PP       0.063200
   6715 C2         27.2400    2.0800   50.8400 c3       747 PP      -0.006100
   6716 C1         28.3800    1.5100   51.7900 c3       747 PP       0.076800
   6717 CB         27.8200    0.9800   53.0900 c3       747 PP      -0.265900
   6718 H21        26.2700    1.7200   51.1900 hc       747 PP       0.001900
   6719 H22        27.4500    1.8300   49.7900 hc       747 PP       0.001900
   6720 H1         29.0900    2.3100   52.0500 hc       747 PP       0.001800
   6721 HB1        28.4600    0.9300   53.9800 hc       747 PP       0.063200
   6722 HB2        26.9200    1.5600   53.3300 hc       747 PP       0.063200
   6723 HB3        27.4500   -0.0500   52.9700 hc       747 PP       0.063200
   6724 C2         29.1800    0.4200   50.9400 c3       748 PP      -0.006100
   6725 C1         30.4400   -0.2600   51.5200 c3       748 PP       0.076800
   6726 CB         31.3700    0.7100   52.4400 c3       748 PP      -0.265900
   6727 H21        28.4200   -0.2700   50.5600 hc       748 PP       0.001900
   6728 H22        29.5100    0.9600   50.0400 hc       748 PP       0.001900
   6729 H1         31.0600   -0.5600   50.6600 hc       748 PP       0.001800
   6730 HB1        31.7200    1.6100   51.9200 hc       748 PP       0.063200
   6731 HB2        30.7300    1.1400   53.2200 hc       748 PP       0.063200
   6732 HB3        32.1900    0.1600   52.9000 hc       748 PP       0.063200
   6733 C2         30.0200   78.4800   52.3800 c3       749 PP      -0.006100
   6734 C1         29.1200   77.3200   51.8300 c3       749 PP       0.076800
   6735 CB         29.5200   76.8800   50.4300 c3       749 PP      -0.265900
   6736 H21        30.9300   78.0800   52.8400 hc       749 PP       0.001900
   6737 H22        29.6300   78.9200   53.3000 hc       749 PP       0.001900
   6738 H1         28.1100   77.7600   51.8600 hc       749 PP       0.001800
   6739 HB1        30.5900   76.6700   50.3400 hc       749 PP       0.063200
   6740 HB2        29.0400   75.9300   50.1700 hc       749 PP       0.063200
   6741 HB3        29.1500   77.6600   49.7400 hc       749 PP       0.063200
   6742 C2         29.1700   76.1100   52.7300 c3       750 PP      -0.006100
   6743 C1         28.7500   76.3900   54.1700 c3       750 PP       0.076800
   6744 CB         29.0600   75.3500   55.2000 c3       750 PP      -0.265900
   6745 H21        30.1400   75.6000   52.6900 hc       750 PP       0.001900
   6746 H22        28.4700   75.3700   52.3300 hc       750 PP       0.001900
   6747 H1         27.6900   76.6600   54.2000 hc       750 PP       0.001800
   6748 HB1        30.0900   75.0000   55.2900 hc       750 PP       0.063200
   6749 HB2        28.7700   75.8500   56.1300 hc       750 PP       0.063200
   6750 HB3        28.4300   74.4700   55.0200 hc       750 PP       0.063200
   6751 C2         64.6400   22.8400   52.0300 c3       751 PP      -0.006100
   6752 C1         63.5500   23.0000   50.9100 c3       751 PP       0.076800
   6753 CB         64.0600   24.1000   49.9400 c3       751 PP      -0.265900
   6754 H21        65.5800   22.4800   51.6000 hc       751 PP       0.001900
   6755 H22        65.0000   23.8300   52.3200 hc       751 PP       0.001900
   6756 H1         62.7100   23.4200   51.4800 hc       751 PP       0.001800
   6757 HB1        63.4900   23.9600   49.0200 hc       751 PP       0.063200
   6758 HB2        63.8100   25.1100   50.2900 hc       751 PP       0.063200
   6759 HB3        65.1600   24.0200   49.8900 hc       751 PP       0.063200
   6760 C2         63.2700   21.5800   50.3000 c3       752 PP      -0.006100
   6761 C1         62.7300   20.4800   51.2800 c3       752 PP       0.076800
   6762 CB         61.3300   20.9400   51.8900 c3       752 PP      -0.265900
   6763 H21        62.7200   21.5500   49.3600 hc       752 PP       0.001900
   6764 H22        64.2900   21.3300   49.9800 hc       752 PP       0.001900
   6765 H1         63.4000   20.4100   52.1500 hc       752 PP       0.001800
   6766 HB1        60.6400   21.1300   51.0600 hc       752 PP       0.063200
   6767 HB2        60.8900   20.2900   52.6500 hc       752 PP       0.063200
   6768 HB3        61.5900   21.7800   52.5400 hc       752 PP       0.063200
   6769 C2         62.7100   19.1000   50.5800 c3       753 PP      -0.006100
   6770 C1         62.6400   17.8600   51.5000 c3       753 PP       0.076800
   6771 CB         62.1500   16.6200   50.7500 c3       753 PP      -0.265900
   6772 H21        61.7700   19.0100   50.0300 hc       753 PP       0.001900
   6773 H22        63.5700   19.0900   49.9000 hc       753 PP       0.001900
   6774 H1         61.7800   18.0100   52.1600 hc       753 PP       0.001800
   6775 HB1        62.0100   15.9000   51.5700 hc       753 PP       0.063200
   6776 HB2        61.2100   16.7100   50.2000 hc       753 PP       0.063200
   6777 HB3        62.9500   16.3900   50.0300 hc       753 PP       0.063200
   6778 C2         63.9900   17.6700   52.2700 c3       754 PP      -0.006100
   6779 C1         63.8100   16.8400   53.5700 c3       754 PP       0.076800
   6780 CB         65.1900   16.2400   54.0200 c3       754 PP      -0.265900
   6781 H21        64.6600   17.0000   51.7200 hc       754 PP       0.001900
   6782 H22        64.5300   18.5600   52.6000 hc       754 PP       0.001900
   6783 H1         63.1800   15.9800   53.3000 hc       754 PP       0.001800
   6784 HB1        65.8700   16.0500   53.1800 hc       754 PP       0.063200
   6785 HB2        65.7700   16.9200   54.6400 hc       754 PP       0.063200
   6786 HB3        65.0300   15.2800   54.5300 hc       754 PP       0.063200
   6787 C2         63.0200   17.6500   54.7200 c3       755 PP      -0.006100
   6788 C1         62.8800   16.8400   56.0100 c3       755 PP       0.076800
   6789 CB         62.4000   17.7900   57.1400 c3       755 PP      -0.265900
   6790 H21        63.4900   18.6300   54.8500 hc       755 PP       0.001900
   6791 H22        62.0000   17.9200   54.4100 hc       755 PP       0.001900
   6792 H1         63.8200   16.5200   56.4800 hc       755 PP       0.001800
   6793 HB1        61.9600   17.3000   58.0200 hc       755 PP       0.063200
   6794 HB2        63.2500   18.3400   57.5600 hc       755 PP       0.063200
   6795 HB3        61.5900   18.4800   56.8800 hc       755 PP       0.063200
   6796 C2         61.9700   15.6600   55.8400 c3       756 PP      -0.006100
   6797 C1         62.1000   14.5900   56.9700 c3       756 PP       0.076800
   6798 CB         60.7000   14.0200   57.2800 c3       756 PP      -0.265900
   6799 H21        60.9600   16.0700   55.9700 hc       756 PP       0.001900
   6800 H22        62.0800   15.2300   54.8400 hc       756 PP       0.001900
   6801 H1         62.4900   15.1600   57.8300 hc       756 PP       0.001800
   6802 HB1        60.0100   14.8400   57.4800 hc       756 PP       0.063200
   6803 HB2        60.2000   13.4100   56.5200 hc       756 PP       0.063200
   6804 HB3        60.7200   13.4200   58.2000 hc       756 PP       0.063200
   6805 C2         63.0000   13.4400   56.4600 c3       757 PP      -0.006100
   6806 C1         63.8800   12.6900   57.5000 c3       757 PP       0.076800
   6807 CB         64.4000   13.5700   58.7200 c3       757 PP      -0.265900
   6808 H21        62.4500   12.6900   55.8700 hc       757 PP       0.001900
   6809 H22        63.6100   13.9800   55.7300 hc       757 PP       0.001900
   6810 H1         64.7300   12.2200   56.9900 hc       757 PP       0.001800
   6811 HB1        64.9100   14.4100   58.2100 hc       757 PP       0.063200
   6812 HB2        63.6700   14.0700   59.3600 hc       757 PP       0.063200
   6813 HB3        65.0900   13.0100   59.3500 hc       757 PP       0.063200
   6814 C2         63.0900   11.4800   58.1900 c3       758 PP      -0.006100
   6815 C1         62.9500   10.1300   57.2800 c3       758 PP       0.076800
   6816 CB         64.2500    9.3100   57.0100 c3       758 PP      -0.265900
   6817 H21        63.6400   11.1200   59.0600 hc       758 PP       0.001900
   6818 H22        62.1100   11.8300   58.5400 hc       758 PP       0.001900
   6819 H1         62.8100   10.5300   56.2700 hc       758 PP       0.001800
   6820 HB1        64.0400    8.5900   56.2000 hc       758 PP       0.063200
   6821 HB2        65.0900   10.0000   56.8800 hc       758 PP       0.063200
   6822 HB3        64.5400    8.6800   57.8600 hc       758 PP       0.063200
   6823 C2         61.6700    9.3500   57.6500 c3       759 PP      -0.006100
   6824 C1         61.6600    8.2200   58.8400 c3       759 PP       0.076800
   6825 CB         62.5200    8.7500   60.1100 c3       759 PP      -0.265900
   6826 H21        60.8400   10.0300   57.8700 hc       759 PP       0.001900
   6827 H22        61.3400    8.8700   56.7200 hc       759 PP       0.001900
   6828 H1         62.1600    7.3400   58.4100 hc       759 PP       0.001800
   6829 HB1        62.1800    9.7800   60.2300 hc       759 PP       0.063200
   6830 HB2        62.3100    8.2000   61.0300 hc       759 PP       0.063200
   6831 HB3        63.6100    8.6200   60.0000 hc       759 PP       0.063200
   6832 C2         60.2700    7.7000   59.3100 c3       760 PP      -0.006100
   6833 C1         59.2700    7.2600   58.2400 c3       760 PP       0.076800
   6834 CB         59.9400    6.3700   57.1600 c3       760 PP      -0.265900
   6835 H21        60.4200    6.8800   60.0300 hc       760 PP       0.001900
   6836 H22        59.7100    8.4600   59.8700 hc       760 PP       0.001900
   6837 H1         58.8100    8.1500   57.8000 hc       760 PP       0.001800
   6838 HB1        60.1900    5.3800   57.5400 hc       760 PP       0.063200
   6839 HB2        59.1700    6.1100   56.4200 hc       760 PP       0.063200
   6840 HB3        60.8100    6.7300   56.5900 hc       760 PP       0.063200
   6841 C2         58.1300    6.4100   58.9000 c3       761 PP      -0.006100
   6842 C1         57.2800    7.0900   59.9400 c3       761 PP       0.076800
   6843 CB         56.7600    8.5100   59.5000 c3       761 PP      -0.265900
   6844 H21        57.5100    6.0400   58.0700 hc       761 PP       0.001900
   6845 H22        58.5800    5.4800   59.2700 hc       761 PP       0.001900
   6846 H1         57.8500    7.2500   60.8600 hc       761 PP       0.001800
   6847 HB1        55.9500    8.4400   58.7600 hc       761 PP       0.063200
   6848 HB2        56.3700    9.1000   60.3400 hc       761 PP       0.063200
   6849 HB3        57.4900    9.1700   59.0100 hc       761 PP       0.063200
   6850 C2         56.0000    6.2700   60.3400 c3       762 PP      -0.006100
   6851 C1         55.3100    6.7800   61.7300 c3       762 PP       0.076800
   6852 CB         53.8900    6.0600   61.8000 c3       762 PP      -0.265900
   6853 H21        55.1600    6.4200   59.6500 hc       762 PP       0.001900
   6854 H22        56.2400    5.2000   60.4400 hc       762 PP       0.001900
   6855 H1         55.1300    7.8500   61.6800 hc       762 PP       0.001800
   6856 HB1        53.9200    4.9700   61.7800 hc       762 PP       0.063200
   6857 HB2        53.3200    6.2900   62.7000 hc       762 PP       0.063200
   6858 HB3        53.3100    6.2700   60.8900 hc       762 PP       0.063200
   6859 C2         56.2400    6.4100   62.9600 c3       763 PP      -0.006100
   6860 C1         56.0000    7.2500   64.2400 c3       763 PP       0.076800
   6861 CB         56.5400    6.4600   65.4800 c3       763 PP      -0.265900
   6862 H21        56.0300    5.3900   63.3200 hc       763 PP       0.001900
   6863 H22        57.2900    6.3800   62.6600 hc       763 PP       0.001900
   6864 H1         54.9100    7.2500   64.3700 hc       763 PP       0.001800
   6865 HB1        57.4300    5.8700   65.2000 hc       763 PP       0.063200
   6866 HB2        56.7000    7.1600   66.3100 hc       763 PP       0.063200
   6867 HB3        55.7500    5.8200   65.8700 hc       763 PP       0.063200
   6868 C2         56.5300    8.7300   64.0300 c3       764 PP      -0.006100
   6869 C1         55.5500    9.7700   64.4200 c3       764 PP       0.076800
   6870 CB         55.6000   10.1200   65.9000 c3       764 PP      -0.265900
   6871 H21        57.4400    8.9600   64.5900 hc       764 PP       0.001900
   6872 H22        56.8400    8.9100   62.9900 hc       764 PP       0.001900
   6873 H1         54.5100    9.4800   64.1900 hc       764 PP       0.001800
   6874 HB1        56.6000   10.4000   66.2700 hc       764 PP       0.063200
   6875 HB2        54.9300   10.9800   66.0300 hc       764 PP       0.063200
   6876 HB3        55.3000    9.2900   66.5500 hc       764 PP       0.063200
   6877 C2         55.7200   11.0300   63.4100 c3       765 PP      -0.006100
   6878 C1         54.5400   12.0600   63.4500 c3       765 PP       0.076800
   6879 CB         55.1200   13.3300   62.7600 c3       765 PP      -0.265900
   6880 H21        56.5500   11.7200   63.6200 hc       765 PP       0.001900
   6881 H22        55.7600   10.6900   62.3700 hc       765 PP       0.001900
   6882 H1         54.3400   12.4000   64.4800 hc       765 PP       0.001800
   6883 HB1        55.7300   13.9500   63.4300 hc       765 PP       0.063200
   6884 HB2        55.8100   13.0500   61.9600 hc       765 PP       0.063200
   6885 HB3        54.3500   13.9900   62.3500 hc       765 PP       0.063200
   6886 C2         53.2300   11.5800   62.8300 c3       766 PP      -0.006100
   6887 C1         51.9900   12.4300   63.2800 c3       766 PP       0.076800
   6888 CB         51.1600   13.1100   62.1000 c3       766 PP      -0.265900
   6889 H21        53.2800   11.5500   61.7300 hc       766 PP       0.001900
   6890 H22        53.1400   10.5200   63.1000 hc       766 PP       0.001900
   6891 H1         52.3900   13.2900   63.8400 hc       766 PP       0.001800
   6892 HB1        50.3000   13.6100   62.5500 hc       766 PP       0.063200
   6893 HB2        51.7400   13.8400   61.5100 hc       766 PP       0.063200
   6894 HB3        50.7200   12.4500   61.3400 hc       766 PP       0.063200
   6895 C2         51.0700   11.7100   64.2900 c3       767 PP      -0.006100
   6896 C1         51.7400   11.2200   65.6800 c3       767 PP       0.076800
   6897 CB         52.2000   12.3800   66.5900 c3       767 PP      -0.265900
   6898 H21        50.2000   12.3200   64.5800 hc       767 PP       0.001900
   6899 H22        50.7600   10.8600   63.6700 hc       767 PP       0.001900
   6900 H1         52.6100   10.6500   65.3400 hc       767 PP       0.001800
   6901 HB1        52.8900   13.0100   66.0300 hc       767 PP       0.063200
   6902 HB2        51.3200   12.9300   66.9500 hc       767 PP       0.063200
   6903 HB3        52.7500   11.9200   67.4200 hc       767 PP       0.063200
   6904 C2         50.8100   10.2300   66.3400 c3       768 PP      -0.006100
   6905 C1         50.8400    8.7900   65.6600 c3       768 PP       0.076800
   6906 CB         51.9800    8.0400   66.4800 c3       768 PP      -0.265900
   6907 H21        50.9500   10.1800   67.4200 hc       768 PP       0.001900
   6908 H22        49.7800   10.6000   66.2700 hc       768 PP       0.001900
   6909 H1         50.9700    8.7900   64.5700 hc       768 PP       0.001800
   6910 HB1        52.0500    7.0200   66.0800 hc       768 PP       0.063200
   6911 HB2        53.0000    8.4200   66.3400 hc       768 PP       0.063200
   6912 HB3        51.6200    7.9800   67.5100 hc       768 PP       0.063200
   6913 C2         49.4600    8.1400   65.8600 c3       769 PP      -0.006100
   6914 C1         49.2600    6.7400   65.1700 c3       769 PP       0.076800
   6915 CB         48.5800    5.8600   66.2900 c3       769 PP      -0.265900
   6916 H21        49.1900    8.1800   66.9200 hc       769 PP       0.001900
   6917 H22        48.7200    8.8000   65.3800 hc       769 PP       0.001900
   6918 H1         50.2400    6.3100   64.9500 hc       769 PP       0.001800
   6919 HB1        49.1600    5.6300   67.2000 hc       769 PP       0.063200
   6920 HB2        47.7000    6.4500   66.5800 hc       769 PP       0.063200
   6921 HB3        48.0900    5.0000   65.8300 hc       769 PP       0.063200
   6922 C2         48.3500    6.7400   63.9300 c3       770 PP      -0.006100
   6923 C1         49.0000    7.1500   62.5800 c3       770 PP       0.076800
   6924 CB         49.8700    5.9800   62.0400 c3       770 PP      -0.265900
   6925 H21        47.9300    5.7300   63.8200 hc       770 PP       0.001900
   6926 H22        47.4600    7.3700   64.0800 hc       770 PP       0.001900
   6927 H1         49.6700    7.9700   62.8600 hc       770 PP       0.001800
   6928 HB1        49.1900    5.1400   61.8500 hc       770 PP       0.063200
   6929 HB2        50.3600    6.2600   61.1000 hc       770 PP       0.063200
   6930 HB3        50.6600    5.5900   62.7000 hc       770 PP       0.063200
   6931 C2         47.9800    7.6300   61.5500 c3       771 PP      -0.006100
   6932 C1         47.6200    9.1500   61.6700 c3       771 PP       0.076800
   6933 CB         48.5800   10.0000   60.7800 c3       771 PP      -0.265900
   6934 H21        48.4400    7.4700   60.5700 hc       771 PP       0.001900
   6935 H22        47.1600    6.9100   61.6000 hc       771 PP       0.001900
   6936 H1         47.7600    9.5000   62.7000 hc       771 PP       0.001800
   6937 HB1        48.4000    9.8200   59.7200 hc       771 PP       0.063200
   6938 HB2        48.3700   11.0700   60.9000 hc       771 PP       0.063200
   6939 HB3        49.6200    9.9300   61.1200 hc       771 PP       0.063200
   6940 C2         46.1000    9.4800   61.3900 c3       772 PP      -0.006100
   6941 C1         45.5500    9.0200   60.0300 c3       772 PP       0.076800
   6942 CB         44.2600    8.1900   60.1000 c3       772 PP      -0.265900
   6943 H21        45.5100    9.0600   62.2100 hc       772 PP       0.001900
   6944 H22        45.9700   10.5700   61.4000 hc       772 PP       0.001900
   6945 H1         46.4100    8.3900   59.7400 hc       772 PP       0.001800
   6946 HB1        44.3200    7.3100   60.7500 hc       772 PP       0.063200
   6947 HB2        43.4400    8.8500   60.4100 hc       772 PP       0.063200
   6948 HB3        43.9800    7.8100   59.1100 hc       772 PP       0.063200
   6949 C2         45.4200   10.0500   58.8400 c3       773 PP      -0.006100
   6950 C1         44.2900   11.0600   58.7500 c3       773 PP       0.076800
   6951 CB         44.7200   12.4300   59.3700 c3       773 PP      -0.265900
   6952 H21        46.4300   10.4500   58.6600 hc       773 PP       0.001900
   6953 H22        45.3500    9.3700   57.9800 hc       773 PP       0.001900
   6954 H1         43.5200   10.6700   59.4300 hc       773 PP       0.001800
   6955 HB1        44.8000   12.4700   60.4600 hc       773 PP       0.063200
   6956 HB2        45.6300   12.8200   58.9000 hc       773 PP       0.063200
   6957 HB3        43.9300   13.1000   59.0000 hc       773 PP       0.063200
   6958 C2         43.6900   11.3400   57.3100 c3       774 PP      -0.006100
   6959 C1         44.4200   12.2900   56.3300 c3       774 PP       0.076800
   6960 CB         45.8500   11.9000   56.0300 c3       774 PP      -0.265900
   6961 H21        43.4100   10.4000   56.8200 hc       774 PP       0.001900
   6962 H22        42.7100   11.7900   57.5300 hc       774 PP       0.001900
   6963 H1         44.5300   13.3100   56.7200 hc       774 PP       0.001800
   6964 HB1        46.1300   10.8600   56.2500 hc       774 PP       0.063200
   6965 HB2        45.9400   12.0600   54.9500 hc       774 PP       0.063200
   6966 HB3        46.5900   12.5600   56.5000 hc       774 PP       0.063200
   6967 C2         43.6600   12.2700   54.9500 c3       775 PP      -0.006100
   6968 C1         42.1500   12.6700   54.9500 c3       775 PP       0.076800
   6969 CB         41.9900   14.0700   55.6000 c3       775 PP      -0.265900
   6970 H21        44.1200   13.0600   54.3400 hc       775 PP       0.001900
   6971 H22        43.7500   11.3000   54.4300 hc       775 PP       0.001900
   6972 H1         41.6000   11.8800   55.4700 hc       775 PP       0.001800
   6973 HB1        42.0400   14.0400   56.7000 hc       775 PP       0.063200
   6974 HB2        42.7000   14.7600   55.1200 hc       775 PP       0.063200
   6975 HB3        40.9800   14.4600   55.4300 hc       775 PP       0.063200
   6976 C2         41.5300   12.6900   53.5300 c3       776 PP      -0.006100
   6977 C1         41.1800   11.2300   53.0000 c3       776 PP       0.076800
   6978 CB         39.8200   10.7600   53.5300 c3       776 PP      -0.265900
   6979 H21        40.6200   13.3100   53.4600 hc       776 PP       0.001900
   6980 H22        42.1600   13.2800   52.8500 hc       776 PP       0.001900
   6981 H1         41.8400   10.5200   53.5200 hc       776 PP       0.001800
   6982 HB1        39.0400   11.5300   53.4200 hc       776 PP       0.063200
   6983 HB2        39.6100    9.7600   53.1200 hc       776 PP       0.063200
   6984 HB3        39.9500   10.7400   54.6200 hc       776 PP       0.063200
   6985 C2         41.3900   11.1600   51.5000 c3       777 PP      -0.006100
   6986 C1         41.7300    9.6800   51.1300 c3       777 PP       0.076800
   6987 CB         40.6400    9.1400   50.2300 c3       777 PP      -0.265900
   6988 H21        40.5200   11.5300   50.9500 hc       777 PP       0.001900
   6989 H22        42.1900   11.8800   51.2800 hc       777 PP       0.001900
   6990 H1         41.7200    9.1200   52.0700 hc       777 PP       0.001800
   6991 HB1        40.6100    9.7200   49.3100 hc       777 PP       0.063200
   6992 HB2        40.7400    8.0900   49.9100 hc       777 PP       0.063200
   6993 HB3        39.6300    9.1900   50.6600 hc       777 PP       0.063200
   6994 C2         43.1700    9.4300   50.4900 c3       778 PP      -0.006100
   6995 C1         44.3800    9.8800   51.3400 c3       778 PP       0.076800
   6996 CB         44.5800    9.0100   52.6100 c3       778 PP      -0.265900
   6997 H21        43.2800    8.3700   50.2300 hc       778 PP       0.001900
   6998 H22        43.2200   10.0200   49.5700 hc       778 PP       0.001900
   6999 H1         44.1400   10.8600   51.7600 hc       778 PP       0.001800
   7000 HB1        44.7700    7.9500   52.4000 hc       778 PP       0.063200
   7001 HB2        45.4900    9.3800   53.1100 hc       778 PP       0.063200
   7002 HB3        43.7000    9.1800   53.2300 hc       778 PP       0.063200
   7003 C2         45.6500    9.9700   50.5700 c3       779 PP      -0.006100
   7004 C1         46.8200   10.8500   51.2200 c3       779 PP       0.076800
   7005 CB         48.0000   10.8500   50.1500 c3       779 PP      -0.265900
   7006 H21        46.0200    8.9500   50.3600 hc       779 PP       0.001900
   7007 H22        45.4800   10.3600   49.5600 hc       779 PP       0.001900
   7008 H1         47.2300   10.4600   52.1600 hc       779 PP       0.001800
   7009 HB1        48.3900    9.8400   50.0000 hc       779 PP       0.063200
   7010 HB2        47.7400   11.1900   49.1400 hc       779 PP       0.063200
   7011 HB3        48.8300   11.4800   50.4600 hc       779 PP       0.063200
   7012 C2         46.4200   12.3000   51.3700 c3       780 PP      -0.006100
   7013 C1         46.2100   13.1100   50.0900 c3       780 PP       0.076800
   7014 CB         44.9500   13.9700   50.1400 c3       780 PP      -0.265900
   7015 H21        47.2100   12.7700   51.9700 hc       780 PP       0.001900
   7016 H22        45.5000   12.4100   51.9600 hc       780 PP       0.001900
   7017 H1         47.1000   13.6800   49.8200 hc       780 PP       0.001800
   7018 HB1        44.0000   13.4400   50.0500 hc       780 PP       0.063200
   7019 HB2        44.9300   14.5400   51.0800 hc       780 PP       0.063200
   7020 HB3        44.9700   14.7300   49.3400 hc       780 PP       0.063200
   7021 C2         64.8600   53.3900   55.4500 c3       781 PP      -0.006100
   7022 C1         64.3100   52.1100   56.1700 c3       781 PP       0.076800
   7023 CB         63.4800   51.3400   55.1900 c3       781 PP      -0.265900
   7024 H21        65.5700   54.0000   56.0100 hc       781 PP       0.001900
   7025 H22        64.2200   54.1800   55.0400 hc       781 PP       0.001900
   7026 H1         63.6300   52.5100   56.9300 hc       781 PP       0.001800
   7027 HB1        63.3600   50.2700   55.3800 hc       781 PP       0.063200
   7028 HB2        62.5300   51.8600   55.0500 hc       781 PP       0.063200
   7029 HB3        63.9600   51.4300   54.2000 hc       781 PP       0.063200
   7030 C2         65.5000   51.3600   56.8400 c3       782 PP      -0.006100
   7031 C1         65.1800   50.0900   57.6000 c3       782 PP       0.076800
   7032 CB         66.4200   49.6800   58.4200 c3       782 PP      -0.265900
   7033 H21        66.2600   51.1700   56.0700 hc       782 PP       0.001900
   7034 H22        65.8600   52.1500   57.5100 hc       782 PP       0.001900
   7035 H1         64.9700   49.3100   56.8600 hc       782 PP       0.001800
   7036 HB1        66.6700   50.3500   59.2500 hc       782 PP       0.063200
   7037 HB2        66.3500   48.6700   58.8300 hc       782 PP       0.063200
   7038 HB3        67.3700   49.7200   57.8700 hc       782 PP       0.063200
   7039 C2         63.8800   50.0800   58.5300 c3       783 PP      -0.006100
   7040 C1         63.5200   48.6100   59.0200 c3       783 PP       0.076800
   7041 CB         62.5400   48.5800   60.2500 c3       783 PP      -0.265900
   7042 H21        64.1200   50.6500   59.4400 hc       783 PP       0.001900
   7043 H22        63.0300   50.6400   58.1400 hc       783 PP       0.001900
   7044 H1         64.4000   48.0300   59.3200 hc       783 PP       0.001800
   7045 HB1        61.6100   49.1100   60.0000 hc       783 PP       0.063200
   7046 HB2        62.1800   47.5600   60.4700 hc       783 PP       0.063200
   7047 HB3        63.0500   48.9600   61.1400 hc       783 PP       0.063200
   7048 C2         62.8800   47.8500   57.7500 c3       784 PP      -0.006100
   7049 C1         62.2500   46.5400   57.9700 c3       784 PP       0.076800
   7050 CB         61.7300   46.0300   56.5900 c3       784 PP      -0.265900
   7051 H21        62.2800   48.5400   57.1500 hc       784 PP       0.001900
   7052 H22        63.7800   47.6000   57.1700 hc       784 PP       0.001900
   7053 H1         61.4100   46.6600   58.6600 hc       784 PP       0.001800
   7054 HB1        62.5300   45.9300   55.8400 hc       784 PP       0.063200
   7055 HB2        61.3200   45.0300   56.8200 hc       784 PP       0.063200
   7056 HB3        61.0100   46.7700   56.2200 hc       784 PP       0.063200
   7057 C2         63.2300   45.5200   58.6500 c3       785 PP      -0.006100
   7058 C1         62.7400   44.2100   59.3400 c3       785 PP       0.076800
   7059 CB         63.4000   42.9600   58.7200 c3       785 PP      -0.265900
   7060 H21        64.0000   45.2700   57.9100 hc       785 PP       0.001900
   7061 H22        63.7800   46.0300   59.4500 hc       785 PP       0.001900
   7062 H1         61.6600   44.1100   59.1500 hc       785 PP       0.001800
   7063 HB1        64.4800   42.9300   58.8700 hc       785 PP       0.063200
   7064 HB2        63.0100   41.9800   59.0200 hc       785 PP       0.063200
   7065 HB3        63.1900   43.0600   57.6500 hc       785 PP       0.063200
   7066 C2         62.8900   44.2500   60.8700 c3       786 PP      -0.006100
   7067 C1         62.4000   42.9900   61.6800 c3       786 PP       0.076800
   7068 CB         62.5900   43.2500   63.2200 c3       786 PP      -0.265900
   7069 H21        63.9200   44.5200   61.1100 hc       786 PP       0.001900
   7070 H22        62.3100   45.0900   61.2900 hc       786 PP       0.001900
   7071 H1         63.0600   42.1400   61.4600 hc       786 PP       0.001800
   7072 HB1        63.6100   43.4900   63.5400 hc       786 PP       0.063200
   7073 HB2        61.9300   44.0200   63.6400 hc       786 PP       0.063200
   7074 HB3        62.3100   42.3700   63.8100 hc       786 PP       0.063200
   7075 C2         60.8800   42.6000   61.4000 c3       787 PP      -0.006100
   7076 C1         60.5100   41.1200   61.8600 c3       787 PP       0.076800
   7077 CB         58.9900   41.0500   61.6400 c3       787 PP      -0.265900
   7078 H21        60.2000   43.3000   61.9000 hc       787 PP       0.001900
   7079 H22        60.5900   42.7000   60.3500 hc       787 PP       0.001900
   7080 H1         60.7900   40.9700   62.9100 hc       787 PP       0.001800
   7081 HB1        58.7900   41.1600   60.5700 hc       787 PP       0.063200
   7082 HB2        58.5900   40.1400   62.1200 hc       787 PP       0.063200
   7083 HB3        58.4300   41.8500   62.1500 hc       787 PP       0.063200
   7084 C2         61.2300   40.1500   60.9600 c3       788 PP      -0.006100
   7085 C1         62.1900   39.2100   61.7100 c3       788 PP       0.076800
   7086 CB         61.4500   38.2100   62.5900 c3       788 PP      -0.265900
   7087 H21        60.5000   39.4800   60.4800 hc       788 PP       0.001900
   7088 H22        61.7100   40.7000   60.1400 hc       788 PP       0.001900
   7089 H1         62.7100   39.8500   62.4300 hc       788 PP       0.001800
   7090 HB1        62.1600   37.6000   63.1500 hc       788 PP       0.063200
   7091 HB2        60.7300   38.6600   63.2800 hc       788 PP       0.063200
   7092 HB3        60.9300   37.5200   61.9200 hc       788 PP       0.063200
   7093 C2         63.2300   38.3000   60.9200 c3       789 PP      -0.006100
   7094 C1         64.3900   39.0400   60.0900 c3       789 PP       0.076800
   7095 CB         65.1700   39.9000   61.0600 c3       789 PP      -0.265900
   7096 H21        63.6800   37.5800   61.6200 hc       789 PP       0.001900
   7097 H22        62.7100   37.6400   60.2200 hc       789 PP       0.001900
   7098 H1         63.8700   39.6800   59.3600 hc       789 PP       0.001800
   7099 HB1        66.2500   39.8600   60.8900 hc       789 PP       0.063200
   7100 HB2        64.9600   40.9800   60.9800 hc       789 PP       0.063200
   7101 HB3        65.0400   39.5400   62.0900 hc       789 PP       0.063200
   7102 C2         65.3700   38.0800   59.3900 c3       790 PP      -0.006100
   7103 C1         66.2500   38.5700   58.2400 c3       790 PP       0.076800
   7104 CB         67.0500   37.4300   57.5700 c3       790 PP      -0.265900
   7105 H21        66.0900   37.6400   60.0900 hc       790 PP       0.001900
   7106 H22        64.7700   37.1900   59.1700 hc       790 PP       0.001900
   7107 H1         67.0000   39.1600   58.7900 hc       790 PP       0.001800
   7108 HB1        67.5500   36.8100   58.3300 hc       790 PP       0.063200
   7109 HB2        66.5200   36.7400   56.9100 hc       790 PP       0.063200
   7110 HB3        67.9200   37.8600   57.0600 hc       790 PP       0.063200
   7111 C2         65.4300   39.4400   57.1800 c3       791 PP      -0.006100
   7112 C1         64.4300   38.6600   56.2600 c3       791 PP       0.076800
   7113 CB         63.5400   37.6000   56.8500 c3       791 PP      -0.265900
   7114 H21        65.0400   40.3700   57.6100 hc       791 PP       0.001900
   7115 H22        66.2400   39.7800   56.5200 hc       791 PP       0.001900
   7116 H1         65.0700   38.0900   55.5700 hc       791 PP       0.001800
   7117 HB1        62.9700   38.0800   57.6500 hc       791 PP       0.063200
   7118 HB2        62.7800   37.2100   56.1600 hc       791 PP       0.063200
   7119 HB3        64.1000   36.7100   57.1800 hc       791 PP       0.063200
   7120 C2         63.7500   39.6400   55.2600 c3       792 PP      -0.006100
   7121 C1         62.5100   40.4400   55.8300 c3       792 PP       0.076800
   7122 CB         62.4100   41.9000   55.3500 c3       792 PP      -0.265900
   7123 H21        64.4900   40.3600   54.9000 hc       792 PP       0.001900
   7124 H22        63.4400   39.0300   54.4000 hc       792 PP       0.001900
   7125 H1         62.7300   40.4400   56.9000 hc       792 PP       0.001800
   7126 HB1        61.5500   42.4200   55.8100 hc       792 PP       0.063200
   7127 HB2        63.3200   42.4700   55.5500 hc       792 PP       0.063200
   7128 HB3        62.2400   41.9200   54.2600 hc       792 PP       0.063200
   7129 C2         61.2500   39.6100   55.6100 c3       793 PP      -0.006100
   7130 C1         60.3800   39.4600   56.8600 c3       793 PP       0.076800
   7131 CB         59.8900   40.7900   57.5500 c3       793 PP      -0.265900
   7132 H21        60.6100   40.1200   54.8800 hc       793 PP       0.001900
   7133 H22        61.5200   38.6100   55.2400 hc       793 PP       0.001900
   7134 H1         61.0500   39.0300   57.6100 hc       793 PP       0.001800
   7135 HB1        59.2700   40.6400   58.4400 hc       793 PP       0.063200
   7136 HB2        60.6900   41.5100   57.7300 hc       793 PP       0.063200
   7137 HB3        59.3300   41.2800   56.7400 hc       793 PP       0.063200
   7138 C2         59.1100   38.6500   56.4700 c3       794 PP      -0.006100
   7139 C1         58.7000   37.7300   57.7200 c3       794 PP       0.076800
   7140 CB         57.2300   37.6000   57.9200 c3       794 PP      -0.265900
   7141 H21        58.2400   39.2900   56.2600 hc       794 PP       0.001900
   7142 H22        59.1900   38.0900   55.5300 hc       794 PP       0.001900
   7143 H1         59.1200   38.2800   58.5700 hc       794 PP       0.001800
   7144 HB1        56.7400   38.5100   58.2900 hc       794 PP       0.063200
   7145 HB2        56.6400   37.3200   57.0400 hc       794 PP       0.063200
   7146 HB3        57.0800   36.8200   58.6800 hc       794 PP       0.063200
   7147 C2         59.4700   36.3500   57.7300 c3       795 PP      -0.006100
   7148 C1         60.3600   36.0300   58.9300 c3       795 PP       0.076800
   7149 CB         59.5200   36.0900   60.2400 c3       795 PP      -0.265900
   7150 H21        58.7600   35.5600   57.4400 hc       795 PP       0.001900
   7151 H22        60.2300   36.4300   56.9500 hc       795 PP       0.001900
   7152 H1         61.1400   36.7800   59.0500 hc       795 PP       0.001800
   7153 HB1        58.6700   35.4200   60.1000 hc       795 PP       0.063200
   7154 HB2        59.9400   35.6700   61.1600 hc       795 PP       0.063200
   7155 HB3        59.2600   37.1300   60.5000 hc       795 PP       0.063200
   7156 C2         61.0300   34.6500   58.8500 c3       796 PP      -0.006100
   7157 C1         62.5100   34.6600   59.2400 c3       796 PP       0.076800
   7158 CB         62.5700   34.6500   60.8500 c3       796 PP      -0.265900
   7159 H21        60.5200   33.8500   59.3900 hc       796 PP       0.001900
   7160 H22        60.9900   34.3800   57.7800 hc       796 PP       0.001900
   7161 H1         63.0900   35.5300   58.9200 hc       796 PP       0.001800
   7162 HB1        62.2500   35.5900   61.3200 hc       796 PP       0.063200
   7163 HB2        61.8200   33.9200   61.2000 hc       796 PP       0.063200
   7164 HB3        63.5700   34.3200   61.1700 hc       796 PP       0.063200
   7165 C2         63.2700   33.4200   58.7700 c3       797 PP      -0.006100
   7166 C1         63.5700   33.5200   57.2100 c3       797 PP       0.076800
   7167 CB         65.0900   33.8100   56.8100 c3       797 PP      -0.265900
   7168 H21        64.3000   33.5200   59.1400 hc       797 PP       0.001900
   7169 H22        62.7800   32.5200   59.1400 hc       797 PP       0.001900
   7170 H1         63.0300   34.3100   56.6700 hc       797 PP       0.001800
   7171 HB1        65.0800   33.8900   55.7100 hc       797 PP       0.063200
   7172 HB2        65.4700   34.8100   57.0600 hc       797 PP       0.063200
   7173 HB3        65.7400   33.0100   57.1900 hc       797 PP       0.063200
   7174 C2         63.2800   32.1600   56.4700 c3       798 PP      -0.006100
   7175 C1         61.7900   31.6100   56.2900 c3       798 PP       0.076800
   7176 CB         61.1400   32.4000   55.1200 c3       798 PP      -0.265900
   7177 H21        63.6600   32.2000   55.4400 hc       798 PP       0.001900
   7178 H22        63.9600   31.4400   56.9500 hc       798 PP       0.001900
   7179 H1         61.1900   31.7300   57.2000 hc       798 PP       0.001800
   7180 HB1        61.5900   32.1700   54.1500 hc       798 PP       0.063200
   7181 HB2        60.0900   32.1000   55.0500 hc       798 PP       0.063200
   7182 HB3        61.2300   33.4800   55.3400 hc       798 PP       0.063200
   7183 C2         61.8400   30.0700   56.0200 c3       799 PP      -0.006100
   7184 C1         61.5100   29.1700   57.2300 c3       799 PP       0.076800
   7185 CB         60.9700   27.8500   56.6800 c3       799 PP      -0.265900
   7186 H21        61.2600   29.8900   55.1000 hc       799 PP       0.001900
   7187 H22        62.8300   29.8300   55.6200 hc       799 PP       0.001900
   7188 H1         60.7900   29.7100   57.8600 hc       799 PP       0.001800
   7189 HB1        60.8700   27.0000   57.3600 hc       799 PP       0.063200
   7190 HB2        59.9400   27.9400   56.3000 hc       799 PP       0.063200
   7191 HB3        61.5700   27.4300   55.8600 hc       799 PP       0.063200
   7192 C2         62.7800   28.8000   58.1100 c3       800 PP      -0.006100
   7193 C1         62.7300   28.8500   59.6800 c3       800 PP       0.076800
   7194 CB         61.4800   28.2100   60.2900 c3       800 PP      -0.265900
   7195 H21        63.0200   27.7300   58.0400 hc       800 PP       0.001900
   7196 H22        63.7100   29.2700   57.7600 hc       800 PP       0.001900
   7197 H1         62.8400   29.8600   60.0900 hc       800 PP       0.001800
   7198 HB1        60.5900   28.7500   59.9400 hc       800 PP       0.063200
   7199 HB2        61.4700   27.1300   60.1300 hc       800 PP       0.063200
   7200 HB3        61.4900   28.3900   61.3800 hc       800 PP       0.063200
   7201 C2         63.9500   28.1200   60.3700 c3       801 PP      -0.006100
   7202 C1         65.3600   28.5600   59.8600 c3       801 PP       0.076800
   7203 CB         65.4200   30.2100   59.8100 c3       801 PP      -0.265900
   7204 H21        63.9000   28.2600   61.4600 hc       801 PP       0.001900
   7205 H22        63.9600   27.0400   60.1800 hc       801 PP       0.001900
   7206 H1         65.3200   28.0800   58.8800 hc       801 PP       0.001800
   7207 HB1        66.3900   30.5800   59.4500 hc       801 PP       0.063200
   7208 HB2        64.7900   30.6300   59.0300 hc       801 PP       0.063200
   7209 HB3        65.1800   30.6400   60.7900 hc       801 PP       0.063200
   7210 C2         66.5200   28.0000   60.8200 c3       802 PP      -0.006100
   7211 C1         66.4200   28.3700   62.3300 c3       802 PP       0.076800
   7212 CB         66.5100   27.0800   63.1800 c3       802 PP      -0.265900
   7213 H21        66.4200   26.9200   60.6300 hc       802 PP       0.001900
   7214 H22        67.4700   28.3200   60.3800 hc       802 PP       0.001900
   7215 H1         65.5200   28.9000   62.6600 hc       802 PP       0.001800
   7216 HB1        66.5200   27.2800   64.2600 hc       802 PP       0.063200
   7217 HB2        65.5800   26.5100   63.0300 hc       802 PP       0.063200
   7218 HB3        67.4000   26.4600   62.9800 hc       802 PP       0.063200
   7219 C2         67.6600   29.3500   62.6500 c3       803 PP      -0.006100
   7220 C1         67.6500   30.0500   64.0200 c3       803 PP       0.076800
   7221 CB         69.0300   30.5200   64.4500 c3       803 PP      -0.265900
   7222 H21        68.5200   28.6700   62.5500 hc       803 PP       0.001900
   7223 H22        67.7500   30.1700   61.9300 hc       803 PP       0.001900
   7224 H1         67.3600   29.2200   64.6700 hc       803 PP       0.001800
   7225 HB1        69.5300   31.1400   63.7000 hc       803 PP       0.063200
   7226 HB2        69.0100   31.0100   65.4300 hc       803 PP       0.063200
   7227 HB3        69.7000   29.6500   64.5700 hc       803 PP       0.063200
   7228 C2         66.5200   31.1600   64.0500 c3       804 PP      -0.006100
   7229 C1         65.6300   31.0200   65.2900 c3       804 PP       0.076800
   7230 CB         66.3200   31.0000   66.6500 c3       804 PP      -0.265900
   7231 H21        67.0000   32.1400   64.0400 hc       804 PP       0.001900
   7232 H22        65.9600   31.1000   63.1100 hc       804 PP       0.001900
   7233 H1         65.2100   30.0100   65.2200 hc       804 PP       0.001800
   7234 HB1        66.8600   31.9500   66.8100 hc       804 PP       0.063200
   7235 HB2        65.5500   30.8800   67.4200 hc       804 PP       0.063200
   7236 HB3        66.9800   30.1400   66.7700 hc       804 PP       0.063200
   7237 C2         64.4200   32.0100   65.2300 c3       805 PP      -0.006100
   7238 C1         63.1600   31.6600   64.3700 c3       805 PP       0.076800
   7239 CB         63.4100   31.9300   62.9200 c3       805 PP      -0.265900
   7240 H21        64.0700   32.1600   66.2600 hc       805 PP       0.001900
   7241 H22        64.7400   33.0100   64.9100 hc       805 PP       0.001900
   7242 H1         62.4700   32.4800   64.6200 hc       805 PP       0.001800
   7243 HB1        62.4800   32.1700   62.3900 hc       805 PP       0.063200
   7244 HB2        64.0600   32.8000   62.7900 hc       805 PP       0.063200
   7245 HB3        63.8600   31.0300   62.4900 hc       805 PP       0.063200
   7246 C2         62.6200   30.2700   64.7300 c3       806 PP      -0.006100
   7247 C1         62.4300   29.9200   66.2400 c3       806 PP       0.076800
   7248 CB         61.3100   30.6900   67.0100 c3       806 PP      -0.265900
   7249 H21        61.7000   30.0400   64.1900 hc       806 PP       0.001900
   7250 H22        63.2400   29.4800   64.2900 hc       806 PP       0.001900
   7251 H1         63.4000   30.1600   66.6900 hc       806 PP       0.001800
   7252 HB1        60.3500   30.4800   66.5200 hc       806 PP       0.063200
   7253 HB2        61.2400   30.2400   68.0100 hc       806 PP       0.063200
   7254 HB3        61.4300   31.7800   67.0200 hc       806 PP       0.063200
   7255 C2         62.1900   28.3800   66.4900 c3       807 PP      -0.006100
   7256 C1         63.3100   27.3900   66.0200 c3       807 PP       0.076800
   7257 CB         64.5800   27.4700   66.9400 c3       807 PP      -0.265900
   7258 H21        61.8800   28.1300   67.5200 hc       807 PP       0.001900
   7259 H22        61.2700   28.1100   65.9600 hc       807 PP       0.001900
   7260 H1         63.6300   27.6600   65.0000 hc       807 PP       0.001800
   7261 HB1        65.2700   26.6600   66.6600 hc       807 PP       0.063200
   7262 HB2        65.0600   28.4500   66.8700 hc       807 PP       0.063200
   7263 HB3        64.2400   27.3900   67.9800 hc       807 PP       0.063200
   7264 C2         62.8400   25.8700   66.2100 c3       808 PP      -0.006100
   7265 C1         61.7600   25.3600   65.2700 c3       808 PP       0.076800
   7266 CB         61.9600   25.9400   63.7900 c3       808 PP      -0.265900
   7267 H21        63.7100   25.2000   66.2500 hc       808 PP       0.001900
   7268 H22        62.4200   25.8700   67.2200 hc       808 PP       0.001900
   7269 H1         60.7900   25.6800   65.6800 hc       808 PP       0.001800
   7270 HB1        61.8300   27.0300   63.7800 hc       808 PP       0.063200
   7271 HB2        63.0000   25.9600   63.4500 hc       808 PP       0.063200
   7272 HB3        61.2100   25.5700   63.0800 hc       808 PP       0.063200
   7273 C2         61.8500   23.8100   65.1200 c3       809 PP      -0.006100
   7274 C1         61.2700   22.9600   66.3100 c3       809 PP       0.076800
   7275 CB         59.7800   22.9500   66.3400 c3       809 PP      -0.265900
   7276 H21        61.3500   23.5400   64.1800 hc       809 PP       0.001900
   7277 H22        62.8800   23.5500   64.8500 hc       809 PP       0.001900
   7278 H1         61.6300   23.3800   67.2600 hc       809 PP       0.001800
   7279 HB1        59.3600   22.2400   67.0700 hc       809 PP       0.063200
   7280 HB2        59.4400   23.8500   66.8700 hc       809 PP       0.063200
   7281 HB3        59.3200   22.9400   65.3500 hc       809 PP       0.063200
   7282 C2         61.7600   21.4500   66.2800 c3       810 PP      -0.006100
   7283 C1         63.0200   21.1700   67.1300 c3       810 PP       0.076800
   7284 CB         63.7500   19.8900   66.7200 c3       810 PP      -0.265900
   7285 H21        62.0100   21.1400   65.2600 hc       810 PP       0.001900
   7286 H22        61.0000   20.8100   66.7500 hc       810 PP       0.001900
   7287 H1         63.7400   22.0000   67.0600 hc       810 PP       0.001800
   7288 HB1        64.7000   19.7000   67.2300 hc       810 PP       0.063200
   7289 HB2        63.1300   19.0000   66.9000 hc       810 PP       0.063200
   7290 HB3        63.8600   20.0600   65.6500 hc       810 PP       0.063200
   7291 C2         13.1400   25.4100   66.7300 c3       811 PP      -0.006100
   7292 C1         12.9000   24.2600   65.7700 c3       811 PP       0.076800
   7293 CB         13.7900   24.3000   64.4700 c3       811 PP      -0.265900
   7294 H21        12.6500   25.2000   67.6900 hc       811 PP       0.001900
   7295 H22        12.7200   26.3700   66.4000 hc       811 PP       0.001900
   7296 H1         11.8500   24.4000   65.4900 hc       811 PP       0.001800
   7297 HB1        13.6300   25.2300   63.9300 hc       811 PP       0.063200
   7298 HB2        14.8600   24.1900   64.7000 hc       811 PP       0.063200
   7299 HB3        13.4500   23.4400   63.8800 hc       811 PP       0.063200
   7300 C2         13.1000   22.8800   66.5000 c3       812 PP      -0.006100
   7301 C1         12.9900   21.5900   65.6600 c3       812 PP       0.076800
   7302 CB         13.4100   20.4600   66.5900 c3       812 PP      -0.265900
   7303 H21        14.1300   22.9400   66.8700 hc       812 PP       0.001900
   7304 H22        12.3800   22.8600   67.3300 hc       812 PP       0.001900
   7305 H1         13.7600   21.6200   64.8800 hc       812 PP       0.001800
   7306 HB1        14.4500   20.6600   66.8500 hc       812 PP       0.063200
   7307 HB2        12.8300   20.5600   67.5200 hc       812 PP       0.063200
   7308 HB3        13.1900   19.4600   66.2000 hc       812 PP       0.063200
   7309 C2         11.4900   21.3100   65.0700 c3       813 PP      -0.006100
   7310 C1         11.5600   20.2700   63.9300 c3       813 PP       0.076800
   7311 CB         10.9400   18.9500   64.3200 c3       813 PP      -0.265900
   7312 H21        10.8200   20.8200   65.7900 hc       813 PP       0.001900
   7313 H22        10.9500   22.2000   64.7100 hc       813 PP       0.001900
   7314 H1         12.6400   20.1000   63.7700 hc       813 PP       0.001800
   7315 HB1         9.8500   19.0100   64.4800 hc       813 PP       0.063200
   7316 HB2        11.0100   18.2600   63.4800 hc       813 PP       0.063200
   7317 HB3        11.3500   18.6700   65.3000 hc       813 PP       0.063200
   7318 C2         10.9100   20.8000   62.6700 c3       814 PP      -0.006100
   7319 C1         11.5400   22.0200   62.0500 c3       814 PP       0.076800
   7320 CB         12.9900   21.7700   61.6000 c3       814 PP      -0.265900
   7321 H21        10.8900   19.9700   61.9500 hc       814 PP       0.001900
   7322 H22         9.8400   21.0000   62.8200 hc       814 PP       0.001900
   7323 H1         11.5700   22.8400   62.7800 hc       814 PP       0.001800
   7324 HB1        13.6700   21.5300   62.4300 hc       814 PP       0.063200
   7325 HB2        13.0500   20.8900   60.9600 hc       814 PP       0.063200
   7326 HB3        13.4000   22.5600   60.9600 hc       814 PP       0.063200
   7327 C2         10.7200   22.4600   60.7000 c3       815 PP      -0.006100
   7328 C1          9.2500   22.8600   60.9900 c3       815 PP       0.076800
   7329 CB          9.3200   24.1100   61.9200 c3       815 PP      -0.265900
   7330 H21        11.2900   23.2900   60.2600 hc       815 PP       0.001900
   7331 H22        10.7500   21.6400   59.9800 hc       815 PP       0.001900
   7332 H1          8.7600   21.9800   61.4300 hc       815 PP       0.001800
   7333 HB1         8.3800   24.6600   61.9000 hc       815 PP       0.063200
   7334 HB2         9.4200   23.8200   62.9800 hc       815 PP       0.063200
   7335 HB3        10.0500   24.8400   61.5500 hc       815 PP       0.063200
   7336 C2          8.4300   23.1900   59.6600 c3       816 PP      -0.006100
   7337 C1          6.8300   22.9100   59.6800 c3       816 PP       0.076800
   7338 CB          6.1600   23.5300   60.8600 c3       816 PP      -0.265900
   7339 H21         8.6200   24.2400   59.4000 hc       816 PP       0.001900
   7340 H22         8.8400   22.4900   58.9200 hc       816 PP       0.001900
   7341 H1          6.6300   21.8300   59.6500 hc       816 PP       0.001800
   7342 HB1         5.1000   23.2900   60.7600 hc       816 PP       0.063200
   7343 HB2         6.5500   23.2700   61.8600 hc       816 PP       0.063200
   7344 HB3         6.3500   24.6100   60.7900 hc       816 PP       0.063200
   7345 C2          6.2400   23.6200   58.3500 c3       817 PP      -0.006100
   7346 C1          6.7300   22.9900   56.9900 c3       817 PP       0.076800
   7347 CB          5.5500   22.6400   56.0600 c3       817 PP      -0.265900
   7348 H21         5.1400   23.6200   58.4300 hc       817 PP       0.001900
   7349 H22         6.5200   24.6800   58.3600 hc       817 PP       0.001900
   7350 H1          7.1300   22.0000   57.2300 hc       817 PP       0.001800
   7351 HB1         5.8200   22.2200   55.0800 hc       817 PP       0.063200
   7352 HB2         4.8800   21.9000   56.5200 hc       817 PP       0.063200
   7353 HB3         4.9500   23.5300   55.8300 hc       817 PP       0.063200
   7354 C2          7.7800   23.9000   56.2800 c3       818 PP      -0.006100
   7355 C1          8.5400   23.3000   55.0400 c3       818 PP       0.076800
   7356 CB          9.3900   24.4300   54.4100 c3       818 PP      -0.265900
   7357 H21         7.2400   24.8000   55.9800 hc       818 PP       0.001900
   7358 H22         8.5100   24.3900   56.9300 hc       818 PP       0.001900
   7359 H1          7.7500   22.9200   54.3800 hc       818 PP       0.001800
   7360 HB1         9.8800   24.1300   53.4800 hc       818 PP       0.063200
   7361 HB2         8.7500   25.2900   54.1900 hc       818 PP       0.063200
   7362 HB3        10.2600   24.7600   54.9900 hc       818 PP       0.063200
   7363 C2          9.3900   21.9900   55.3800 c3       819 PP      -0.006100
   7364 C1         10.3900   21.3600   54.2000 c3       819 PP       0.076800
   7365 CB         11.2200   20.1400   54.8600 c3       819 PP      -0.265900
   7366 H21         9.9600   22.1800   56.3000 hc       819 PP       0.001900
   7367 H22         8.6800   21.1800   55.6100 hc       819 PP       0.001900
   7368 H1         11.0200   22.2300   53.9600 hc       819 PP       0.001800
   7369 HB1        10.8400   19.1200   54.7000 hc       819 PP       0.063200
   7370 HB2        12.2500   20.1900   54.5000 hc       819 PP       0.063200
   7371 HB3        11.3400   20.2000   55.9500 hc       819 PP       0.063200
   7372 C2          9.7100   20.9900   52.8800 c3       820 PP      -0.006100
   7373 C1         10.7100   20.7900   51.7500 c3       820 PP       0.076800
   7374 CB         10.1100   19.8100   50.6100 c3       820 PP      -0.265900
   7375 H21         9.0900   20.0900   52.9100 hc       820 PP       0.001900
   7376 H22         8.9900   21.7800   52.6500 hc       820 PP       0.001900
   7377 H1         11.5300   20.2100   52.1700 hc       820 PP       0.001800
   7378 HB1        10.8300   19.7600   49.7900 hc       820 PP       0.063200
   7379 HB2         9.9900   18.8600   51.1400 hc       820 PP       0.063200
   7380 HB3         9.1600   20.1600   50.1800 hc       820 PP       0.063200
   7381 C2         11.0800   22.1400   51.0500 c3       821 PP      -0.006100
   7382 C1         12.5900   22.4300   51.1200 c3       821 PP       0.076800
   7383 CB         13.3500   21.5800   50.1400 c3       821 PP      -0.265900
   7384 H21        10.8000   22.1300   49.9900 hc       821 PP       0.001900
   7385 H22        10.4600   22.9300   51.4800 hc       821 PP       0.001900
   7386 H1         12.8300   22.2600   52.1800 hc       821 PP       0.001800
   7387 HB1        14.4300   21.7400   50.0100 hc       821 PP       0.063200
   7388 HB2        13.4200   20.5400   50.4700 hc       821 PP       0.063200
   7389 HB3        12.8800   21.7900   49.1700 hc       821 PP       0.063200
   7390 C2         12.7600   23.9100   50.7600 c3       822 PP      -0.006100
   7391 C1         14.3700   24.3300   50.8000 c3       822 PP       0.076800
   7392 CB         14.5800   25.6900   50.1300 c3       822 PP      -0.265900
   7393 H21        12.3400   24.1600   49.7800 hc       822 PP       0.001900
   7394 H22        12.2900   24.4900   51.5700 hc       822 PP       0.001900
   7395 H1         14.9500   23.6900   50.1300 hc       822 PP       0.001800
   7396 HB1        14.0600   25.8000   49.1800 hc       822 PP       0.063200
   7397 HB2        14.2200   26.3900   50.9000 hc       822 PP       0.063200
   7398 HB3        15.6500   25.9300   50.0300 hc       822 PP       0.063200
   7399 C2         15.1300   24.1700   52.1200 c3       823 PP      -0.006100
   7400 C1         14.7000   25.0600   53.3100 c3       823 PP       0.076800
   7401 CB         13.5100   24.3800   54.1500 c3       823 PP      -0.265900
   7402 H21        14.9700   23.1300   52.4200 hc       823 PP       0.001900
   7403 H22        16.2000   24.2700   51.9400 hc       823 PP       0.001900
   7404 H1         14.3700   26.0400   52.9400 hc       823 PP       0.001800
   7405 HB1        13.8000   23.4000   54.5500 hc       823 PP       0.063200
   7406 HB2        13.3100   25.0400   55.0100 hc       823 PP       0.063200
   7407 HB3        12.6000   24.2800   53.5400 hc       823 PP       0.063200
   7408 C2         15.8600   25.4400   54.2200 c3       824 PP      -0.006100
   7409 C1         16.5800   24.2500   54.9500 c3       824 PP       0.076800
   7410 CB         18.1500   24.2100   54.5200 c3       824 PP      -0.265900
   7411 H21        16.5300   26.0500   53.6000 hc       824 PP       0.001900
   7412 H22        15.4700   26.0700   55.0300 hc       824 PP       0.001900
   7413 H1         16.2200   23.3600   54.4300 hc       824 PP       0.001800
   7414 HB1        18.7700   25.0000   54.9600 hc       824 PP       0.063200
   7415 HB2        18.6800   23.3200   54.8700 hc       824 PP       0.063200
   7416 HB3        18.0200   24.3000   53.4300 hc       824 PP       0.063200
   7417 C2         16.3800   24.3300   56.4600 c3       825 PP      -0.006100
   7418 C1         16.6400   23.0100   57.2300 c3       825 PP       0.076800
   7419 CB         16.8500   23.2400   58.7300 c3       825 PP      -0.265900
   7420 H21        17.0300   25.1200   56.8500 hc       825 PP       0.001900
   7421 H22        15.3600   24.7200   56.6300 hc       825 PP       0.001900
   7422 H1         17.5800   22.5900   56.8400 hc       825 PP       0.001800
   7423 HB1        17.1200   22.3100   59.2500 hc       825 PP       0.063200
   7424 HB2        17.5200   24.0800   58.9100 hc       825 PP       0.063200
   7425 HB3        15.9100   23.5700   59.1800 hc       825 PP       0.063200
   7426 C2         15.7200   21.7600   56.9000 c3       826 PP      -0.006100
   7427 C1         14.4300   21.5200   57.8400 c3       826 PP       0.076800
   7428 CB         13.2700   22.4500   57.4600 c3       826 PP      -0.265900
   7429 H21        15.4400   21.8900   55.8400 hc       826 PP       0.001900
   7430 H22        16.2900   20.8300   56.8600 hc       826 PP       0.001900
   7431 H1         14.6100   21.8800   58.8700 hc       826 PP       0.001800
   7432 HB1        12.7100   22.0000   56.6300 hc       826 PP       0.063200
   7433 HB2        12.6200   22.6900   58.3100 hc       826 PP       0.063200
   7434 HB3        13.7000   23.3800   57.0700 hc       826 PP       0.063200
   7435 C2         13.9200   20.0600   57.7600 c3       827 PP      -0.006100
   7436 C1         14.8400   18.9500   58.3600 c3       827 PP       0.076800
   7437 CB         15.6300   19.2300   59.6100 c3       827 PP      -0.265900
   7438 H21        12.9100   20.0700   58.1900 hc       827 PP       0.001900
   7439 H22        13.7900   19.9100   56.6800 hc       827 PP       0.001900
   7440 H1         15.6500   18.8200   57.6400 hc       827 PP       0.001800
   7441 HB1        16.2300   20.1500   59.5500 hc       827 PP       0.063200
   7442 HB2        14.9900   19.2600   60.5000 hc       827 PP       0.063200
   7443 HB3        16.3400   18.4000   59.6800 hc       827 PP       0.063200
   7444 C2         14.1100   17.5500   58.5400 c3       828 PP      -0.006100
   7445 C1         13.5000   17.0400   57.1600 c3       828 PP       0.076800
   7446 CB         14.6700   16.7600   56.1000 c3       828 PP      -0.265900
   7447 H21        14.8200   16.8300   58.9700 hc       828 PP       0.001900
   7448 H22        13.3000   17.6100   59.2700 hc       828 PP       0.001900
   7449 H1         12.7500   17.7200   56.7300 hc       828 PP       0.001800
   7450 HB1        15.0000   17.7500   55.7500 hc       828 PP       0.063200
   7451 HB2        15.5400   16.2200   56.5000 hc       828 PP       0.063200
   7452 HB3        14.3100   16.1500   55.2700 hc       828 PP       0.063200
   7453 C2         12.7300   15.6700   57.3600 c3       829 PP      -0.006100
   7454 C1         11.3500   15.7700   58.0900 c3       829 PP       0.076800
   7455 CB         10.3500   16.7000   57.2100 c3       829 PP      -0.265900
   7456 H21        12.5200   15.2500   56.3600 hc       829 PP       0.001900
   7457 H22        13.2800   14.9000   57.9100 hc       829 PP       0.001900
   7458 H1         11.3800   16.3500   59.0200 hc       829 PP       0.001800
   7459 HB1        10.6000   17.7500   57.4000 hc       829 PP       0.063200
   7460 HB2        10.2700   16.4500   56.1400 hc       829 PP       0.063200
   7461 HB3         9.3400   16.5800   57.6200 hc       829 PP       0.063200
   7462 C2         10.6000   14.4100   58.4300 c3       830 PP      -0.006100
   7463 C1         10.6700   14.0100   59.9700 c3       830 PP       0.076800
   7464 CB          9.6400   12.8300   60.3300 c3       830 PP      -0.265900
   7465 H21         9.5300   14.5100   58.2200 hc       830 PP       0.001900
   7466 H22        10.9000   13.5500   57.8100 hc       830 PP       0.001900
   7467 H1         10.3900   14.8900   60.5500 hc       830 PP       0.001800
   7468 HB1         9.9700   11.8800   59.8900 hc       830 PP       0.063200
   7469 HB2         9.3100   12.6700   61.3700 hc       830 PP       0.063200
   7470 HB3         8.7400   13.0600   59.7500 hc       830 PP       0.063200
   7471 C2         12.1200   13.5100   60.4400 c3       831 PP      -0.006100
   7472 C1         12.5400   13.8400   61.9000 c3       831 PP       0.076800
   7473 CB         13.2000   12.5300   62.4900 c3       831 PP      -0.265900
   7474 H21        12.2700   12.4600   60.1700 hc       831 PP       0.001900
   7475 H22        12.8800   13.9900   59.8100 hc       831 PP       0.001900
   7476 H1         11.7200   14.0200   62.6000 hc       831 PP       0.001800
   7477 HB1        14.0700   12.3900   61.8400 hc       831 PP       0.063200
   7478 HB2        13.4700   12.5900   63.5500 hc       831 PP       0.063200
   7479 HB3        12.5500   11.6500   62.4400 hc       831 PP       0.063200
   7480 C2         13.5700   15.0500   61.8900 c3       832 PP      -0.006100
   7481 C1         14.2300   15.4300   63.2700 c3       832 PP       0.076800
   7482 CB         15.4400   16.4300   63.1500 c3       832 PP      -0.265900
   7483 H21        14.3300   15.0300   61.1000 hc       832 PP       0.001900
   7484 H22        13.0000   15.9200   61.5500 hc       832 PP       0.001900
   7485 H1         14.8100   14.5600   63.6100 hc       832 PP       0.001800
   7486 HB1        15.1100   17.4500   62.8900 hc       832 PP       0.063200
   7487 HB2        16.0000   16.4500   64.0900 hc       832 PP       0.063200
   7488 HB3        16.1700   16.1700   62.3700 hc       832 PP       0.063200
   7489 C2         13.2000   15.8300   64.3700 c3       833 PP      -0.006100
   7490 C1         13.2700   15.0500   65.7200 c3       833 PP       0.076800
   7491 CB         14.2800   15.6500   66.7300 c3       833 PP      -0.265900
   7492 H21        13.3300   16.8900   64.6400 hc       833 PP       0.001900
   7493 H22        12.1700   15.7300   63.9900 hc       833 PP       0.001900
   7494 H1         13.6800   14.0600   65.4900 hc       833 PP       0.001800
   7495 HB1        15.2100   15.8900   66.1900 hc       833 PP       0.063200
   7496 HB2        13.9700   16.5200   67.3300 hc       833 PP       0.063200
   7497 HB3        14.6300   14.8400   67.3900 hc       833 PP       0.063200
   7498 C2         11.9900   14.8100   66.4900 c3       834 PP      -0.006100
   7499 C1         10.9300   13.9200   65.7800 c3       834 PP       0.076800
   7500 CB         11.4700   12.4000   65.8100 c3       834 PP      -0.265900
   7501 H21        12.0200   14.4600   67.5300 hc       834 PP       0.001900
   7502 H22        11.5500   15.8200   66.5100 hc       834 PP       0.001900
   7503 H1         10.8200   14.1800   64.7200 hc       834 PP       0.001800
   7504 HB1        12.0900   12.0700   66.6500 hc       834 PP       0.063200
   7505 HB2        10.6200   11.7200   65.6600 hc       834 PP       0.063200
   7506 HB3        12.1200   12.2000   64.9500 hc       834 PP       0.063200
   7507 C2          9.5700   14.0000   66.5800 c3       835 PP      -0.006100
   7508 C1          8.2500   14.1100   65.7500 c3       835 PP       0.076800
   7509 CB          8.3500   15.3100   64.7200 c3       835 PP      -0.265900
   7510 H21         9.5400   13.2800   67.4000 hc       835 PP       0.001900
   7511 H22         9.6300   14.8500   67.2800 hc       835 PP       0.001900
   7512 H1          7.6200   14.4100   66.6000 hc       835 PP       0.001800
   7513 HB1         8.9400   14.9800   63.8600 hc       835 PP       0.063200
   7514 HB2         7.3100   15.4900   64.4300 hc       835 PP       0.063200
   7515 HB3         8.9200   16.1400   65.1600 hc       835 PP       0.063200
   7516 C2          7.8400   12.7400   65.1700 c3       836 PP      -0.006100
   7517 C1          6.7100   11.9100   65.9100 c3       836 PP       0.076800
   7518 CB          7.4700   11.0300   66.9400 c3       836 PP      -0.265900
   7519 H21         7.5200   12.9700   64.1400 hc       836 PP       0.001900
   7520 H22         8.7000   12.0700   65.0500 hc       836 PP       0.001900
   7521 H1          6.3200   11.2100   65.1600 hc       836 PP       0.001800
   7522 HB1         6.7100   10.4100   67.4500 hc       836 PP       0.063200
   7523 HB2         8.1400   10.3100   66.4500 hc       836 PP       0.063200
   7524 HB3         8.0100   11.6700   67.6500 hc       836 PP       0.063200
   7525 C2          5.5800   12.7200   66.6300 c3       837 PP      -0.006100
   7526 C1          4.6800   13.6200   65.7200 c3       837 PP       0.076800
   7527 CB          3.9700   12.7300   64.7100 c3       837 PP      -0.265900
   7528 H21         4.9800   12.0500   67.2600 hc       837 PP       0.001900
   7529 H22         6.0400   13.4500   67.3000 hc       837 PP       0.001900
   7530 H1          5.3900   14.2900   65.2100 hc       837 PP       0.001800
   7531 HB1         4.6800   12.0500   64.2100 hc       837 PP       0.063200
   7532 HB2         3.3000   12.1300   65.3400 hc       837 PP       0.063200
   7533 HB3         3.3300   13.2100   63.9600 hc       837 PP       0.063200
   7534 C2          3.6200   14.4200   66.5600 c3       838 PP      -0.006100
   7535 C1          2.5400   15.2500   65.8000 c3       838 PP       0.076800
   7536 CB          1.8900   16.1700   66.9300 c3       838 PP      -0.265900
   7537 H21         3.2600   13.8300   67.4100 hc       838 PP       0.001900
   7538 H22         4.2600   15.0800   67.1600 hc       838 PP       0.001900
   7539 H1          1.8400   14.5100   65.4000 hc       838 PP       0.001800
   7540 HB1         1.7200   15.6300   67.8700 hc       838 PP       0.063200
   7541 HB2         2.5500   17.0300   67.1100 hc       838 PP       0.063200
   7542 HB3         0.8700   16.4700   66.7100 hc       838 PP       0.063200
   7543 C2          2.9700   16.2200   64.6200 c3       839 PP      -0.006100
   7544 C1          1.7500   16.6900   63.8200 c3       839 PP       0.076800
   7545 CB          2.0500   18.0000   63.0600 c3       839 PP      -0.265900
   7546 H21         3.4600   17.1000   65.0600 hc       839 PP       0.001900
   7547 H22         3.7600   15.8400   63.9600 hc       839 PP       0.001900
   7548 H1          0.9400   16.9400   64.5200 hc       839 PP       0.001800
   7549 HB1         2.9500   17.8100   62.4700 hc       839 PP       0.063200
   7550 HB2         1.2000   18.3600   62.4700 hc       839 PP       0.063200
   7551 HB3         2.3200   18.8100   63.7500 hc       839 PP       0.063200
   7552 C2         81.2500   15.5300   62.9400 c3       840 PP      -0.006100
   7553 C1         80.0000   16.0100   62.1600 c3       840 PP       0.076800
   7554 CB         78.6700   15.5300   62.8800 c3       840 PP      -0.265900
   7555 H21        81.0600   14.5900   63.4700 hc       840 PP       0.001900
   7556 H22        81.9900   15.2900   62.1600 hc       840 PP       0.001900
   7557 H1         80.1400   15.3900   61.2600 hc       840 PP       0.001800
   7558 HB1        77.6900   15.8700   62.5300 hc       840 PP       0.063200
   7559 HB2        78.6200   14.4300   62.8900 hc       840 PP       0.063200
   7560 HB3        78.7000   15.8200   63.9400 hc       840 PP       0.063200
   7561 C2         78.1300   20.3500   57.2300 c3       841 PP      -0.006100
   7562 C1         77.9500   18.7300   57.2000 c3       841 PP       0.076800
   7563 CB         77.3400   18.3200   55.8600 c3       841 PP      -0.265900
   7564 H21        78.8600   20.9000   56.6300 hc       841 PP       0.001900
   7565 H22        78.0500   20.7600   58.2400 hc       841 PP       0.001900
   7566 H1         77.1300   18.6900   57.9300 hc       841 PP       0.001800
   7567 HB1        78.1500   18.1400   55.1500 hc       841 PP       0.063200
   7568 HB2        76.8300   17.3600   56.0700 hc       841 PP       0.063200
   7569 HB3        76.5900   19.0000   55.4500 hc       841 PP       0.063200
   7570 C2         79.2900   17.9600   57.5600 c3       842 PP      -0.006100
   7571 C1         79.9000   18.4300   58.8800 c3       842 PP       0.076800
   7572 CB         78.9400   18.2400   60.1000 c3       842 PP      -0.265900
   7573 H21        79.1500   16.8700   57.5600 hc       842 PP       0.001900
   7574 H22        80.0000   18.2200   56.7600 hc       842 PP       0.001900
   7575 H1         80.1400   19.5000   58.8300 hc       842 PP       0.001800
   7576 HB1        78.0000   18.8000   60.0000 hc       842 PP       0.063200
   7577 HB2        78.5500   17.2100   60.1000 hc       842 PP       0.063200
   7578 HB3        79.4400   18.5200   61.0400 hc       842 PP       0.063200
   7579 C2          1.2800   17.7300   59.2200 c3       843 PP      -0.006100
   7580 C1          2.3800   17.8300   58.0700 c3       843 PP       0.076800
   7581 CB          2.7700   19.3300   57.8200 c3       843 PP      -0.265900
   7582 H21         1.6700   18.1100   60.1700 hc       843 PP       0.001900
   7583 H22         0.9700   16.7100   59.4400 hc       843 PP       0.001900
   7584 H1          2.0800   17.4400   57.0900 hc       843 PP       0.001800
   7585 HB1         3.4700   19.5200   56.9900 hc       843 PP       0.063200
   7586 HB2         1.8700   19.8500   57.4800 hc       843 PP       0.063200
   7587 HB3         3.1600   19.7400   58.7600 hc       843 PP       0.063200
   7588 C2          3.7600   17.1900   58.6100 c3       844 PP      -0.006100
   7589 C1          3.7200   15.7200   58.9400 c3       844 PP       0.076800
   7590 CB          3.1300   14.8600   57.7600 c3       844 PP      -0.265900
   7591 H21         4.5500   17.3700   57.8600 hc       844 PP       0.001900
   7592 H22         4.1600   17.7700   59.4500 hc       844 PP       0.001900
   7593 H1          3.0900   15.5900   59.8300 hc       844 PP       0.001800
   7594 HB1         3.1100   13.8100   58.0700 hc       844 PP       0.063200
   7595 HB2         2.0400   15.0100   57.7100 hc       844 PP       0.063200
   7596 HB3         3.7300   15.0800   56.8700 hc       844 PP       0.063200
   7597 C2          5.0900   15.0200   59.2500 c3       845 PP      -0.006100
   7598 C1          5.6800   15.4000   60.6100 c3       845 PP       0.076800
   7599 CB          5.9200   14.2300   61.6100 c3       845 PP      -0.265900
   7600 H21         4.9500   13.9300   59.2700 hc       845 PP       0.001900
   7601 H22         5.8300   15.1700   58.4500 hc       845 PP       0.001900
   7602 H1          4.8900   15.9700   61.1000 hc       845 PP       0.001800
   7603 HB1         6.6900   13.5600   61.2200 hc       845 PP       0.063200
   7604 HB2         6.2100   14.6100   62.5900 hc       845 PP       0.063200
   7605 HB3         4.9900   13.6900   61.8100 hc       845 PP       0.063200
   7606 C2          6.9400   16.3000   60.3500 c3       846 PP      -0.006100
   7607 C1          7.2700   17.2700   61.5200 c3       846 PP       0.076800
   7608 CB          8.7600   17.7500   61.5000 c3       846 PP      -0.265900
   7609 H21         7.8000   15.6400   60.2000 hc       846 PP       0.001900
   7610 H22         6.7800   16.9300   59.4600 hc       846 PP       0.001900
   7611 H1          7.1600   16.7300   62.4700 hc       846 PP       0.001800
   7612 HB1         9.1600   18.0800   62.4600 hc       846 PP       0.063200
   7613 HB2         9.4000   16.8800   61.3300 hc       846 PP       0.063200
   7614 HB3         8.9500   18.5200   60.7400 hc       846 PP       0.063200
   7615 C2          6.2600   18.3800   61.6200 c3       847 PP      -0.006100
   7616 C1          6.6000   19.5200   62.6300 c3       847 PP       0.076800
   7617 CB          5.4200   20.5700   62.5000 c3       847 PP      -0.265900
   7618 H21         6.2000   18.9300   60.6800 hc       847 PP       0.001900
   7619 H22         5.2600   18.0400   61.9200 hc       847 PP       0.001900
   7620 H1          7.5600   19.9600   62.3500 hc       847 PP       0.001800
   7621 HB1         5.1900   20.8000   61.4500 hc       847 PP       0.063200
   7622 HB2         4.4500   20.3500   62.9400 hc       847 PP       0.063200
   7623 HB3         5.8500   21.4300   63.0200 hc       847 PP       0.063200
   7624 C2          6.5100   18.8900   64.0300 c3       848 PP      -0.006100
   7625 C1          6.4600   20.0300   65.1600 c3       848 PP       0.076800
   7626 CB          6.3600   19.3900   66.6000 c3       848 PP      -0.265900
   7627 H21         5.6200   18.2600   64.1800 hc       848 PP       0.001900
   7628 H22         7.3400   18.1900   64.1600 hc       848 PP       0.001900
   7629 H1          5.6000   20.6700   64.9400 hc       848 PP       0.001800
   7630 HB1         7.1100   18.6100   66.7500 hc       848 PP       0.063200
   7631 HB2         6.3700   20.1100   67.4300 hc       848 PP       0.063200
   7632 HB3         5.3900   18.8700   66.6300 hc       848 PP       0.063200
   7633 C2          7.7600   20.9800   65.2500 c3       849 PP      -0.006100
   7634 C1          7.4300   22.2700   66.0300 c3       849 PP       0.076800
   7635 CB          8.7100   22.6900   66.8000 c3       849 PP      -0.265900
   7636 H21         8.5400   20.4500   65.8200 hc       849 PP       0.001900
   7637 H22         8.0800   21.1500   64.2200 hc       849 PP       0.001900
   7638 H1          6.7000   22.2400   66.8400 hc       849 PP       0.001800
   7639 HB1         8.7500   23.6800   67.2700 hc       849 PP       0.063200
   7640 HB2         9.1100   21.9200   67.4800 hc       849 PP       0.063200
   7641 HB3         9.5800   22.7100   66.1300 hc       849 PP       0.063200
   7642 C2          7.0000   23.4500   65.0700 c3       850 PP      -0.006100
   7643 C1          5.5300   23.9500   65.4200 c3       850 PP       0.076800
   7644 CB          5.6200   25.0400   66.6300 c3       850 PP      -0.265900
   7645 H21         7.6500   24.3200   64.9900 hc       850 PP       0.001900
   7646 H22         6.9200   23.0400   64.0600 hc       850 PP       0.001900
   7647 H1          4.9200   23.0900   65.7200 hc       850 PP       0.001800
   7648 HB1         6.2500   25.9000   66.3700 hc       850 PP       0.063200
   7649 HB2         4.7100   25.5500   66.9400 hc       850 PP       0.063200
   7650 HB3         5.9800   24.6100   67.5700 hc       850 PP       0.063200
   7651 C2          4.8800   24.5200   64.1400 c3       851 PP      -0.006100
   7652 C1          3.3200   24.8200   64.2800 c3       851 PP       0.076800
   7653 CB          2.9500   25.4100   62.8200 c3       851 PP      -0.265900
   7654 H21         5.4300   25.4100   63.8000 hc       851 PP       0.001900
   7655 H22         4.9700   23.7900   63.3300 hc       851 PP       0.001900
   7656 H1          3.1700   25.6400   64.9900 hc       851 PP       0.001800
   7657 HB1         3.2300   24.6300   62.1100 hc       851 PP       0.063200
   7658 HB2         1.8800   25.6400   62.7100 hc       851 PP       0.063200
   7659 HB3         3.3800   26.3900   62.5800 hc       851 PP       0.063200
   7660 C2          2.3700   23.6500   64.6500 c3       852 PP      -0.006100
   7661 C1          1.7600   23.5000   66.0200 c3       852 PP       0.076800
   7662 CB          1.1000   24.7700   66.5200 c3       852 PP      -0.265900
   7663 H21         1.4800   23.7500   64.0000 hc       852 PP       0.001900
   7664 H22         2.9600   22.7500   64.4400 hc       852 PP       0.001900
   7665 H1          2.6600   23.3100   66.6300 hc       852 PP       0.001800
   7666 HB1         1.8400   25.4500   66.9500 hc       852 PP       0.063200
   7667 HB2         0.5500   25.2500   65.7000 hc       852 PP       0.063200
   7668 HB3         0.3800   24.5000   67.3000 hc       852 PP       0.063200
   7669 C2          0.7100   22.4300   66.0500 c3       853 PP      -0.006100
   7670 C1          1.3400   20.9700   65.9500 c3       853 PP       0.076800
   7671 CB          2.5500   20.8200   66.9300 c3       853 PP      -0.265900
   7672 H21         0.2100   22.4300   67.0300 hc       853 PP       0.001900
   7673 H22         0.0200   22.6000   65.2100 hc       853 PP       0.001900
   7674 H1          1.8500   20.8600   64.9800 hc       853 PP       0.001800
   7675 HB1         2.7700   19.7900   67.2500 hc       853 PP       0.063200
   7676 HB2         3.4600   21.2900   66.5400 hc       853 PP       0.063200
   7677 HB3         2.3400   21.3800   67.8500 hc       853 PP       0.063200
   7678 C2         80.3200   19.7200   66.1600 c3       854 PP      -0.006100
   7679 C1         79.0200   19.7900   65.4700 c3       854 PP       0.076800
   7680 CB         79.1600   19.7000   63.9400 c3       854 PP      -0.265900
   7681 H21        80.8700   18.7900   65.9700 hc       854 PP       0.001900
   7682 H22        80.1300   19.6300   67.2300 hc       854 PP       0.001900
   7683 H1         78.5300   20.7200   65.8000 hc       854 PP       0.001800
   7684 HB1        78.3700   20.3700   63.5900 hc       854 PP       0.063200
   7685 HB2        80.0900   20.0900   63.5000 hc       854 PP       0.063200
   7686 HB3        79.0900   18.6500   63.6500 hc       854 PP       0.063200
   7687 C2         78.0700   18.6200   65.9100 c3       855 PP      -0.006100
   7688 C1         76.5800   18.7000   65.3800 c3       855 PP       0.076800
   7689 CB         75.8700   17.3100   65.0000 c3       855 PP      -0.265900
   7690 H21        78.5000   17.6600   65.5900 hc       855 PP       0.001900
   7691 H22        78.0600   18.5600   67.0100 hc       855 PP       0.001900
   7692 H1         76.6200   19.2300   64.4200 hc       855 PP       0.001800
   7693 HB1        75.8800   16.6400   65.8600 hc       855 PP       0.063200
   7694 HB2        74.8200   17.4200   64.7100 hc       855 PP       0.063200
   7695 HB3        76.4500   16.7700   64.2400 hc       855 PP       0.063200
   7696 C2         75.8100   19.6500   66.4000 c3       856 PP      -0.006100
   7697 C1         74.5300   20.1700   65.6800 c3       856 PP       0.076800
   7698 CB         73.3200   19.4600   66.3100 c3       856 PP      -0.265900
   7699 H21        75.6000   19.1200   67.3300 hc       856 PP       0.001900
   7700 H22        76.4600   20.4900   66.6500 hc       856 PP       0.001900
   7701 H1         74.6400   19.8800   64.6300 hc       856 PP       0.001800
   7702 HB1        73.3000   18.3700   66.1500 hc       856 PP       0.063200
   7703 HB2        73.3000   19.7000   67.3800 hc       856 PP       0.063200
   7704 HB3        72.3800   19.8300   65.8700 hc       856 PP       0.063200
   7705 C2         74.3700   21.7600   65.8100 c3       857 PP      -0.006100
   7706 C1         74.7800   22.5000   64.4600 c3       857 PP       0.076800
   7707 CB         73.5700   22.3700   63.3900 c3       857 PP      -0.265900
   7708 H21        73.3000   21.9700   65.9600 hc       857 PP       0.001900
   7709 H22        74.9600   22.0700   66.6800 hc       857 PP       0.001900
   7710 H1         75.6700   21.9500   64.1500 hc       857 PP       0.001800
   7711 HB1        73.1700   21.3600   63.5600 hc       857 PP       0.063200
   7712 HB2        72.7700   23.0700   63.6300 hc       857 PP       0.063200
   7713 HB3        73.9300   22.3500   62.3500 hc       857 PP       0.063200
   7714 C2         75.0700   24.0000   64.7600 c3       858 PP      -0.006100
   7715 C1         76.5600   24.3900   65.1200 c3       858 PP       0.076800
   7716 CB         76.9500   23.9700   66.5900 c3       858 PP      -0.265900
   7717 H21        74.7800   24.6000   63.8900 hc       858 PP       0.001900
   7718 H22        74.4900   24.3100   65.6300 hc       858 PP       0.001900
   7719 H1         76.5500   25.4800   65.1200 hc       858 PP       0.001800
   7720 HB1        77.5100   23.0300   66.6000 hc       858 PP       0.063200
   7721 HB2        77.5900   24.7800   66.9500 hc       858 PP       0.063200
   7722 HB3        76.0600   23.8900   67.2300 hc       858 PP       0.063200
   7723 C2         77.6000   24.0300   64.0000 c3       859 PP      -0.006100
   7724 C1         77.2900   24.5500   62.5900 c3       859 PP       0.076800
   7725 CB         77.0700   26.0700   62.4900 c3       859 PP      -0.265900
   7726 H21        78.5300   24.5400   64.2900 hc       859 PP       0.001900
   7727 H22        77.9000   22.9800   64.0300 hc       859 PP       0.001900
   7728 H1         76.3500   24.0300   62.3600 hc       859 PP       0.001800
   7729 HB1        76.0800   26.4700   62.7700 hc       859 PP       0.063200
   7730 HB2        77.5500   26.5700   63.3400 hc       859 PP       0.063200
   7731 HB3        77.4500   26.4700   61.5400 hc       859 PP       0.063200
   7732 C2         78.3200   24.1500   61.5100 c3       860 PP      -0.006100
   7733 C1         78.5600   22.6000   61.2900 c3       860 PP       0.076800
   7734 CB         77.2100   21.9200   60.9400 c3       860 PP      -0.265900
   7735 H21        78.0700   24.6000   60.5400 hc       860 PP       0.001900
   7736 H22        79.2100   24.6900   61.8500 hc       860 PP       0.001900
   7737 H1         78.9600   22.1500   62.2100 hc       860 PP       0.001800
   7738 HB1        76.4400   21.8900   61.7100 hc       860 PP       0.063200
   7739 HB2        76.8000   22.4300   60.0600 hc       860 PP       0.063200
   7740 HB3        77.3600   20.9000   60.5700 hc       860 PP       0.063200
   7741 C2         -0.3500   22.2700   60.2400 c3       861 PP      -0.006100
   7742 C1          1.1600   22.7800   60.5100 c3       861 PP       0.076800
   7743 CB          1.8700   21.8000   61.4400 c3       861 PP      -0.265900
   7744 H21        -0.3100   21.1700   60.1600 hc       861 PP       0.001900
   7745 H22        -0.6900   22.5800   59.2400 hc       861 PP       0.001900
   7746 H1          1.1000   23.7800   60.9600 hc       861 PP       0.001800
   7747 HB1         2.2300   21.0000   60.7800 hc       861 PP       0.063200
   7748 HB2         2.7500   22.3400   61.8200 hc       861 PP       0.063200
   7749 HB3         1.2100   21.3700   62.1900 hc       861 PP       0.063200
   7750 C2          1.8800   22.8900   59.1700 c3       862 PP      -0.006100
   7751 C1          1.6200   24.2600   58.4100 c3       862 PP       0.076800
   7752 CB          2.1100   25.4500   59.2600 c3       862 PP      -0.265900
   7753 H21         2.9700   22.7800   59.2100 hc       862 PP       0.001900
   7754 H22         1.4200   22.1000   58.5600 hc       862 PP       0.001900
   7755 H1          0.5500   24.3100   58.1900 hc       862 PP       0.001800
   7756 HB1         3.1100   25.2000   59.6300 hc       862 PP       0.063200
   7757 HB2         2.1000   26.4400   58.7900 hc       862 PP       0.063200
   7758 HB3         1.4700   25.7400   60.1000 hc       862 PP       0.063200
   7759 C2          2.3600   24.3100   57.0600 c3       863 PP      -0.006100
   7760 C1          1.8900   25.4500   56.0600 c3       863 PP       0.076800
   7761 CB          2.6800   25.3300   54.7100 c3       863 PP      -0.265900
   7762 H21         3.4300   24.1900   57.2500 hc       863 PP       0.001900
   7763 H22         2.1300   23.4300   56.4600 hc       863 PP       0.001900
   7764 H1          2.1400   26.4400   56.4700 hc       863 PP       0.001800
   7765 HB1         2.7000   26.3200   54.2400 hc       863 PP       0.063200
   7766 HB2         3.7200   25.0800   54.9500 hc       863 PP       0.063200
   7767 HB3         2.2700   24.6000   53.9900 hc       863 PP       0.063200
   7768 C2          0.3700   25.4000   55.7200 c3       864 PP      -0.006100
   7769 C1         -0.3500   26.6800   56.1900 c3       864 PP       0.076800
   7770 CB          0.2800   27.8600   55.4800 c3       864 PP      -0.265900
   7771 H21         0.2000   25.4300   54.6300 hc       864 PP       0.001900
   7772 H22        -0.0600   24.4700   56.1200 hc       864 PP       0.001900
   7773 H1         -0.1400   26.7200   57.2700 hc       864 PP       0.001800
   7774 HB1         0.8000   27.5900   54.5500 hc       864 PP       0.063200
   7775 HB2        -0.4100   28.6800   55.2500 hc       864 PP       0.063200
   7776 HB3         1.1000   28.2100   56.1200 hc       864 PP       0.063200
   7777 C2         78.1100   26.6000   55.8500 c3       865 PP      -0.006100
   7778 C1         77.3100   25.4100   56.5400 c3       865 PP       0.076800
   7779 CB         76.8200   25.7600   57.9300 c3       865 PP      -0.265900
   7780 H21        77.6900   27.5400   56.2300 hc       865 PP       0.001900
   7781 H22        77.9900   26.5300   54.7600 hc       865 PP       0.001900
   7782 H1         77.9300   24.5200   56.6600 hc       865 PP       0.001800
   7783 HB1        76.1300   24.9900   58.3000 hc       865 PP       0.063200
   7784 HB2        77.6800   25.9200   58.5800 hc       865 PP       0.063200
   7785 HB3        76.2100   26.6700   57.8800 hc       865 PP       0.063200
   7786 C2         76.2200   24.9500   55.5300 c3       866 PP      -0.006100
   7787 C1         74.9000   24.2800   55.9600 c3       866 PP       0.076800
   7788 CB         74.0400   24.1600   54.6900 c3       866 PP      -0.265900
   7789 H21        76.0200   25.8000   54.8700 hc       866 PP       0.001900
   7790 H22        76.8000   24.2900   54.8700 hc       866 PP       0.001900
   7791 H1         74.3200   24.9000   56.6500 hc       866 PP       0.001800
   7792 HB1        73.0500   23.7600   54.9400 hc       866 PP       0.063200
   7793 HB2        73.9600   25.1200   54.1600 hc       866 PP       0.063200
   7794 HB3        74.4700   23.5200   53.9200 hc       866 PP       0.063200
   7795 C2         75.1800   22.7900   56.5500 c3       867 PP      -0.006100
   7796 C1         74.0700   21.9700   57.2400 c3       867 PP       0.076800
   7797 CB         74.2700   20.4600   56.9000 c3       867 PP      -0.265900
   7798 H21        75.5700   22.2400   55.6800 hc       867 PP       0.001900
   7799 H22        76.0100   22.7600   57.2700 hc       867 PP       0.001900
   7800 H1         73.1800   22.2400   56.6700 hc       867 PP       0.001800
   7801 HB1        74.7700   20.1800   55.9600 hc       867 PP       0.063200
   7802 HB2        74.8500   20.0500   57.7400 hc       867 PP       0.063200
   7803 HB3        73.3600   19.8600   56.9100 hc       867 PP       0.063200
   7804 C2         73.9000   22.3500   58.7200 c3       868 PP      -0.006100
   7805 C1         72.9000   23.5200   58.9600 c3       868 PP       0.076800
   7806 CB         71.4500   23.0100   58.6600 c3       868 PP      -0.265900
   7807 H21        73.4500   21.5000   59.2400 hc       868 PP       0.001900
   7808 H22        74.9200   22.4900   59.0900 hc       868 PP       0.001900
   7809 H1         73.0900   24.3800   58.3100 hc       868 PP       0.001800
   7810 HB1        70.7000   22.9000   59.4500 hc       868 PP       0.063200
   7811 HB2        70.9900   23.6400   57.8900 hc       868 PP       0.063200
   7812 HB3        71.5400   22.0500   58.1200 hc       868 PP       0.063200
   7813 C2         73.0800   24.1600   60.4300 c3       869 PP      -0.006100
   7814 C1         72.8600   25.6700   60.6500 c3       869 PP       0.076800
   7815 CB         74.1300   26.4000   60.0300 c3       869 PP      -0.265900
   7816 H21        72.5300   23.5500   61.1500 hc       869 PP       0.001900
   7817 H22        74.1100   23.9200   60.7400 hc       869 PP       0.001900
   7818 H1         72.8600   25.8800   61.7300 hc       869 PP       0.001800
   7819 HB1        74.1600   26.2400   58.9400 hc       869 PP       0.063200
   7820 HB2        74.2400   27.4600   60.2700 hc       869 PP       0.063200
   7821 HB3        74.9900   25.8600   60.4600 hc       869 PP       0.063200
   7822 C2         71.5100   26.2300   59.9900 c3       870 PP      -0.006100
   7823 C1         70.9200   27.4200   60.7600 c3       870 PP       0.076800
   7824 CB         71.4600   28.8300   60.3500 c3       870 PP      -0.265900
   7825 H21        70.8200   25.3900   59.8800 hc       870 PP       0.001900
   7826 H22        71.6600   26.5100   58.9400 hc       870 PP       0.001900
   7827 H1         69.8300   27.3800   60.8100 hc       870 PP       0.001800
   7828 HB1        71.2500   29.5100   61.1900 hc       870 PP       0.063200
   7829 HB2        72.5400   28.7600   60.2300 hc       870 PP       0.063200
   7830 HB3        71.0300   29.2300   59.4200 hc       870 PP       0.063200
   7831 C2         23.0300   21.6800   66.5400 c3       871 PP      -0.006100
   7832 C1         22.7700   23.1500   66.1000 c3       871 PP       0.076800
   7833 CB         21.5100   23.7100   66.7400 c3       871 PP      -0.265900
   7834 H21        22.9300   21.5200   67.6200 hc       871 PP       0.001900
   7835 H22        24.0700   21.3500   66.3900 hc       871 PP       0.001900
   7836 H1         22.7100   23.3100   65.0200 hc       871 PP       0.001800
   7837 HB1        21.4600   23.4600   67.8000 hc       871 PP       0.063200
   7838 HB2        21.4500   24.7700   66.4600 hc       871 PP       0.063200
   7839 HB3        20.6100   23.2800   66.2600 hc       871 PP       0.063200
   7840 C2         23.9700   24.0600   66.5100 c3       872 PP      -0.006100
   7841 C1         25.2600   23.8700   65.5700 c3       872 PP       0.076800
   7842 CB         24.8900   24.2800   64.1100 c3       872 PP      -0.265900
   7843 H21        23.7000   25.1300   66.4600 hc       872 PP       0.001900
   7844 H22        24.2200   24.0700   67.5800 hc       872 PP       0.001900
   7845 H1         25.4900   22.8000   65.5200 hc       872 PP       0.001800
   7846 HB1        24.2300   23.5400   63.6500 hc       872 PP       0.063200
   7847 HB2        24.2900   25.2000   64.1800 hc       872 PP       0.063200
   7848 HB3        25.7500   24.4000   63.4500 hc       872 PP       0.063200
   7849 C2         26.4700   24.5600   66.2100 c3       873 PP      -0.006100
   7850 C1         27.9100   23.8600   65.9000 c3       873 PP       0.076800
   7851 CB         27.8900   22.3300   66.3100 c3       873 PP      -0.265900
   7852 H21        26.3900   25.6200   65.9300 hc       873 PP       0.001900
   7853 H22        26.3900   24.5800   67.3000 hc       873 PP       0.001900
   7854 H1         28.7000   24.3500   66.4900 hc       873 PP       0.001800
   7855 HB1        27.2400   22.2100   67.1900 hc       873 PP       0.063200
   7856 HB2        27.4800   21.6800   65.5200 hc       873 PP       0.063200
   7857 HB3        28.8400   21.9500   66.6900 hc       873 PP       0.063200
   7858 C2         28.3300   24.0200   64.3900 c3       874 PP      -0.006100
   7859 C1         28.4700   25.4500   63.8200 c3       874 PP       0.076800
   7860 CB         29.3400   26.1000   64.8300 c3       874 PP      -0.265900
   7861 H21        29.3100   23.5800   64.1800 hc       874 PP       0.001900
   7862 H22        27.6100   23.4800   63.7700 hc       874 PP       0.001900
   7863 H1         27.5100   25.9500   63.6700 hc       874 PP       0.001800
   7864 HB1        30.2600   25.5400   65.0300 hc       874 PP       0.063200
   7865 HB2        29.7300   27.0400   64.4100 hc       874 PP       0.063200
   7866 HB3        28.8700   26.4000   65.7700 hc       874 PP       0.063200
   7867 C2         29.2100   25.4300   62.4700 c3       875 PP      -0.006100
   7868 C1         29.1500   26.7500   61.7400 c3       875 PP       0.076800
   7869 CB         30.3600   26.8100   60.7600 c3       875 PP      -0.265900
   7870 H21        30.2100   25.0900   62.7500 hc       875 PP       0.001900
   7871 H22        28.8700   24.5800   61.8600 hc       875 PP       0.001900
   7872 H1         29.3400   27.6100   62.3900 hc       875 PP       0.001800
   7873 HB1        30.7600   27.7700   60.4400 hc       875 PP       0.063200
   7874 HB2        31.2000   26.3600   61.3000 hc       875 PP       0.063200
   7875 HB3        30.2400   26.1300   59.9000 hc       875 PP       0.063200
   7876 C2         27.8200   26.8300   60.9600 c3       876 PP      -0.006100
   7877 C1         27.6000   28.0800   60.1000 c3       876 PP       0.076800
   7878 CB         26.3400   28.1100   59.2100 c3       876 PP      -0.265900
   7879 H21        27.7800   25.9600   60.3000 hc       876 PP       0.001900
   7880 H22        26.9700   26.6100   61.6200 hc       876 PP       0.001900
   7881 H1         28.3300   28.1900   59.3000 hc       876 PP       0.001800
   7882 HB1        26.0900   29.1100   58.8200 hc       876 PP       0.063200
   7883 HB2        26.3300   27.4200   58.3600 hc       876 PP       0.063200
   7884 HB3        25.4000   27.9400   59.7500 hc       876 PP       0.063200
   7885 C2         27.5700   29.4100   60.9700 c3       877 PP      -0.006100
   7886 C1         28.7800   30.3000   60.8300 c3       877 PP       0.076800
   7887 CB         28.9700   30.8600   59.3800 c3       877 PP      -0.265900
   7888 H21        26.7600   30.0700   60.6300 hc       877 PP       0.001900
   7889 H22        27.4300   29.2000   62.0400 hc       877 PP       0.001900
   7890 H1         29.6500   29.6600   61.0100 hc       877 PP       0.001800
   7891 HB1        28.0400   31.3600   59.0800 hc       877 PP       0.063200
   7892 HB2        29.8700   31.4900   59.4100 hc       877 PP       0.063200
   7893 HB3        29.2400   30.0700   58.6700 hc       877 PP       0.063200
   7894 C2         28.7600   31.4800   61.9000 c3       878 PP      -0.006100
   7895 C1         29.4100   31.1000   63.3200 c3       878 PP       0.076800
   7896 CB         30.5300   32.0100   63.6400 c3       878 PP      -0.265900
   7897 H21        29.4600   32.2500   61.5500 hc       878 PP       0.001900
   7898 H22        27.7900   32.0000   61.9600 hc       878 PP       0.001900
   7899 H1         29.7800   30.0700   63.2100 hc       878 PP       0.001800
   7900 HB1        31.0100   31.6700   64.5700 hc       878 PP       0.063200
   7901 HB2        31.3000   32.0300   62.8600 hc       878 PP       0.063200
   7902 HB3        30.1500   33.0300   63.8000 hc       878 PP       0.063200
   7903 C2         28.2700   31.0200   64.4100 c3       879 PP      -0.006100
   7904 C1         28.2100   29.6900   65.2600 c3       879 PP       0.076800
   7905 CB         29.5300   29.3600   66.0800 c3       879 PP      -0.265900
   7906 H21        28.4100   31.8900   65.0600 hc       879 PP       0.001900
   7907 H22        27.2800   31.1300   63.9500 hc       879 PP       0.001900
   7908 H1         28.1100   28.8600   64.5500 hc       879 PP       0.001800
   7909 HB1        30.3600   29.0500   65.4300 hc       879 PP       0.063200
   7910 HB2        29.8500   30.2000   66.7000 hc       879 PP       0.063200
   7911 HB3        29.2600   28.5000   66.7100 hc       879 PP       0.063200
   7912 C2         26.9700   29.5600   66.1800 c3       880 PP      -0.006100
   7913 C1         25.6000   29.6900   65.4600 c3       880 PP       0.076800
   7914 CB         25.4800   28.5300   64.4500 c3       880 PP      -0.265900
   7915 H21        26.9400   28.5900   66.6800 hc       880 PP       0.001900
   7916 H22        27.0700   30.3100   66.9700 hc       880 PP       0.001900
   7917 H1         25.5400   30.6900   65.0000 hc       880 PP       0.001800
   7918 HB1        26.3800   28.2200   63.9200 hc       880 PP       0.063200
   7919 HB2        25.0800   27.6800   65.0100 hc       880 PP       0.063200
   7920 HB3        24.7800   28.8500   63.6600 hc       880 PP       0.063200
   7921 C2         24.4200   29.7300   66.5000 c3       881 PP      -0.006100
   7922 C1         22.9700   29.4900   65.9500 c3       881 PP       0.076800
   7923 CB         22.3900   28.0700   66.2700 c3       881 PP      -0.265900
   7924 H21        24.6200   29.0400   67.3300 hc       881 PP       0.001900
   7925 H22        24.4300   30.7500   66.9100 hc       881 PP       0.001900
   7926 H1         22.9900   29.5600   64.8600 hc       881 PP       0.001800
   7927 HB1        22.1700   27.9300   67.3400 hc       881 PP       0.063200
   7928 HB2        21.4600   27.9200   65.7100 hc       881 PP       0.063200
   7929 HB3        23.1000   27.2700   66.0500 hc       881 PP       0.063200
   7930 C2         22.0500   30.6100   66.4600 c3       882 PP      -0.006100
   7931 C1         22.2300   32.0000   65.7500 c3       882 PP       0.076800
   7932 CB         22.2700   31.9500   64.2100 c3       882 PP      -0.265900
   7933 H21        21.0100   30.2900   66.3700 hc       882 PP       0.001900
   7934 H22        22.2200   30.6200   67.5500 hc       882 PP       0.001900
   7935 H1         23.1800   32.3800   66.1300 hc       882 PP       0.001800
   7936 HB1        22.1600   32.9400   63.7600 hc       882 PP       0.063200
   7937 HB2        23.2100   31.5100   63.8700 hc       882 PP       0.063200
   7938 HB3        21.4100   31.3400   63.9100 hc       882 PP       0.063200
   7939 C2         21.0400   32.9700   66.2200 c3       883 PP      -0.006100
   7940 C1         21.1600   34.4600   65.8600 c3       883 PP       0.076800
   7941 CB         19.9200   35.2200   66.3000 c3       883 PP      -0.265900
   7942 H21        20.1000   32.6100   65.7900 hc       883 PP       0.001900
   7943 H22        20.7900   32.9000   67.2900 hc       883 PP       0.001900
   7944 H1         21.3000   34.7000   64.8000 hc       883 PP       0.001800
   7945 HB1        20.0100   36.3000   66.4700 hc       883 PP       0.063200
   7946 HB2        19.0900   35.1500   65.5900 hc       883 PP       0.063200
   7947 HB3        19.5400   34.9200   67.2800 hc       883 PP       0.063200
   7948 C2         22.3800   35.1300   66.6000 c3       884 PP      -0.006100
   7949 C1         23.4100   35.8200   65.7500 c3       884 PP       0.076800
   7950 CB         22.8900   37.2000   65.3000 c3       884 PP      -0.265900
   7951 H21        22.1100   35.8900   67.3400 hc       884 PP       0.001900
   7952 H22        22.8400   34.2900   67.1400 hc       884 PP       0.001900
   7953 H1         23.6700   35.2000   64.8800 hc       884 PP       0.001800
   7954 HB1        21.9900   37.1900   64.6600 hc       884 PP       0.063200
   7955 HB2        22.7000   37.8200   66.1800 hc       884 PP       0.063200
   7956 HB3        23.6400   37.6700   64.6600 hc       884 PP       0.063200
   7957 C2         24.7700   36.0600   66.6300 c3       885 PP      -0.006100
   7958 C1         26.0600   35.3000   66.0700 c3       885 PP       0.076800
   7959 CB         25.8700   33.7100   66.0700 c3       885 PP      -0.265900
   7960 H21        25.0000   37.1300   66.5500 hc       885 PP       0.001900
   7961 H22        24.5900   35.7800   67.6800 hc       885 PP       0.001900
   7962 H1         26.7900   35.6200   66.8300 hc       885 PP       0.001800
   7963 HB1        25.5500   33.4000   67.0700 hc       885 PP       0.063200
   7964 HB2        25.0800   33.5100   65.3200 hc       885 PP       0.063200
   7965 HB3        26.7300   33.1500   65.6800 hc       885 PP       0.063200
   7966 C2         26.4000   35.7900   64.6800 c3       886 PP      -0.006100
   7967 C1         27.9600   35.8200   64.3800 c3       886 PP       0.076800
   7968 CB         28.3200   35.2500   62.9700 c3       886 PP      -0.265900
   7969 H21        25.9300   35.0900   63.9800 hc       886 PP       0.001900
   7970 H22        25.9900   36.8000   64.5400 hc       886 PP       0.001900
   7971 H1         28.5700   35.2200   65.0800 hc       886 PP       0.001800
   7972 HB1        27.6700   35.6000   62.1500 hc       886 PP       0.063200
   7973 HB2        29.3200   35.5900   62.6800 hc       886 PP       0.063200
   7974 HB3        28.2700   34.1600   62.8700 hc       886 PP       0.063200
   7975 C2         28.4600   37.3200   64.3500 c3       887 PP      -0.006100
   7976 C1         28.7800   37.8700   65.7800 c3       887 PP       0.076800
   7977 CB         29.9000   37.1100   66.4500 c3       887 PP      -0.265900
   7978 H21        29.4000   37.5000   63.8100 hc       887 PP       0.001900
   7979 H22        27.7300   38.0100   63.9200 hc       887 PP       0.001900
   7980 H1         27.9000   37.7700   66.4200 hc       887 PP       0.001800
   7981 HB1        30.1100   37.5700   67.4300 hc       887 PP       0.063200
   7982 HB2        29.6500   36.0800   66.7400 hc       887 PP       0.063200
   7983 HB3        30.7700   37.2600   65.8100 hc       887 PP       0.063200
   7984 C2         29.0700   39.3900   65.8000 c3       888 PP      -0.006100
   7985 C1         27.8900   40.3500   65.4200 c3       888 PP       0.076800
   7986 CB         26.6300   40.0300   66.1800 c3       888 PP      -0.265900
   7987 H21        29.5000   39.6300   66.7800 hc       888 PP       0.001900
   7988 H22        29.9000   39.6100   65.1300 hc       888 PP       0.001900
   7989 H1         27.5900   40.2500   64.3700 hc       888 PP       0.001800
   7990 HB1        26.8700   39.7400   67.2200 hc       888 PP       0.063200
   7991 HB2        25.9300   40.8700   66.2700 hc       888 PP       0.063200
   7992 HB3        26.1200   39.1900   65.7000 hc       888 PP       0.063200
   7993 C2         28.3000   41.8900   65.7000 c3       889 PP      -0.006100
   7994 C1         29.5800   42.5400   65.0400 c3       889 PP       0.076800
   7995 CB         29.4900   42.7700   63.5400 c3       889 PP      -0.265900
   7996 H21        27.3600   42.3800   65.4000 hc       889 PP       0.001900
   7997 H22        28.3200   42.0100   66.7900 hc       889 PP       0.001900
   7998 H1         30.4000   41.8200   65.1500 hc       889 PP       0.001800
   7999 HB1        29.1800   43.8100   63.4100 hc       889 PP       0.063200
   8000 HB2        30.4900   42.6700   63.0800 hc       889 PP       0.063200
   8001 HB3        28.8000   42.1300   62.9800 hc       889 PP       0.063200
   8002 C2         30.0700   43.8400   65.8400 c3       890 PP      -0.006100
   8003 C1         31.6000   44.0900   65.6000 c3       890 PP       0.076800
   8004 CB         31.9700   45.5000   66.0200 c3       890 PP      -0.265900
   8005 H21        29.5300   44.7300   65.5000 hc       890 PP       0.001900
   8006 H22        29.8200   43.7500   66.9000 hc       890 PP       0.001900
   8007 H1         31.8600   43.9700   64.5400 hc       890 PP       0.001800
   8008 HB1        33.0500   45.5800   65.9000 hc       890 PP       0.063200
   8009 HB2        31.3700   46.2400   65.4700 hc       890 PP       0.063200
   8010 HB3        31.7000   45.6700   67.0700 hc       890 PP       0.063200
   8011 C2         32.4600   43.1100   66.5100 c3       891 PP      -0.006100
   8012 C1         33.5000   42.2400   65.7100 c3       891 PP       0.076800
   8013 CB         34.8400   43.0600   65.4500 c3       891 PP      -0.265900
   8014 H21        33.0700   43.7100   67.2100 hc       891 PP       0.001900
   8015 H22        31.7500   42.5500   67.1300 hc       891 PP       0.001900
   8016 H1         33.0600   41.8900   64.7600 hc       891 PP       0.001800
   8017 HB1        35.5600   42.5700   64.7900 hc       891 PP       0.063200
   8018 HB2        34.6400   43.9900   64.9100 hc       891 PP       0.063200
   8019 HB3        35.3400   43.2900   66.3900 hc       891 PP       0.063200
   8020 C2         33.7300   40.8700   66.3800 c3       892 PP      -0.006100
   8021 C1         34.7700   39.8700   65.7600 c3       892 PP       0.076800
   8022 CB         35.1500   38.9100   66.8400 c3       892 PP      -0.265900
   8023 H21        33.9200   40.9100   67.4600 hc       892 PP       0.001900
   8024 H22        32.7500   40.3700   66.3600 hc       892 PP       0.001900
   8025 H1         35.6000   40.4800   65.3900 hc       892 PP       0.001800
   8026 HB1        35.8800   38.1900   66.4700 hc       892 PP       0.063200
   8027 HB2        35.5600   39.4400   67.7000 hc       892 PP       0.063200
   8028 HB3        34.2500   38.3900   67.1900 hc       892 PP       0.063200
   8029 C2         34.0000   39.1100   64.5900 c3       893 PP      -0.006100
   8030 C1         34.2900   39.6400   63.1200 c3       893 PP       0.076800
   8031 CB         35.7400   39.8000   62.8100 c3       893 PP      -0.265900
   8032 H21        34.1900   38.0300   64.5900 hc       893 PP       0.001900
   8033 H22        32.9100   39.1900   64.6500 hc       893 PP       0.001900
   8034 H1         33.9000   40.6700   63.0700 hc       893 PP       0.001800
   8035 HB1        35.9300   39.6900   61.7400 hc       893 PP       0.063200
   8036 HB2        36.2500   40.7500   63.0100 hc       893 PP       0.063200
   8037 HB3        36.3000   39.0300   63.3700 hc       893 PP       0.063200
   8038 C2         33.6700   38.7800   61.9400 c3       894 PP      -0.006100
   8039 C1         32.2200   38.3000   62.1400 c3       894 PP       0.076800
   8040 CB         31.2200   39.4400   62.1700 c3       894 PP      -0.265900
   8041 H21        33.6500   39.3600   61.0100 hc       894 PP       0.001900
   8042 H22        34.4200   38.0000   61.7400 hc       894 PP       0.001900
   8043 H1         32.2900   37.8300   63.1300 hc       894 PP       0.001800
   8044 HB1        30.6500   39.5300   61.2400 hc       894 PP       0.063200
   8045 HB2        30.5400   39.2200   63.0100 hc       894 PP       0.063200
   8046 HB3        31.7500   40.3700   62.4200 hc       894 PP       0.063200
   8047 C2         31.7900   37.2400   61.0200 c3       895 PP      -0.006100
   8048 C1         32.5800   35.8000   61.1300 c3       895 PP       0.076800
   8049 CB         32.4500   35.1400   62.5400 c3       895 PP      -0.265900
   8050 H21        30.7300   36.9800   61.0600 hc       895 PP       0.001900
   8051 H22        32.0000   37.6300   60.0200 hc       895 PP       0.001900
   8052 H1         33.6500   36.0100   61.0100 hc       895 PP       0.001800
   8053 HB1        33.1500   34.3000   62.6800 hc       895 PP       0.063200
   8054 HB2        32.7300   35.8100   63.3700 hc       895 PP       0.063200
   8055 HB3        31.4600   34.7200   62.7700 hc       895 PP       0.063200
   8056 C2         32.0000   34.8300   60.0000 c3       896 PP      -0.006100
   8057 C1         32.9700   33.6000   59.4900 c3       896 PP       0.076800
   8058 CB         34.4300   34.0900   59.1700 c3       896 PP      -0.265900
   8059 H21        31.0800   34.3400   60.3300 hc       896 PP       0.001900
   8060 H22        31.6800   35.5000   59.1900 hc       896 PP       0.001900
   8061 H1         32.5300   33.2700   58.5400 hc       896 PP       0.001800
   8062 HB1        35.0700   34.2000   60.0600 hc       896 PP       0.063200
   8063 HB2        34.8700   33.4500   58.4000 hc       896 PP       0.063200
   8064 HB3        34.3800   35.0800   58.7000 hc       896 PP       0.063200
   8065 C2         33.0000   32.3400   60.4500 c3       897 PP      -0.006100
   8066 C1         33.5900   31.0700   59.7900 c3       897 PP       0.076800
   8067 CB         33.8900   30.0800   60.9300 c3       897 PP      -0.265900
   8068 H21        33.5400   32.6000   61.3700 hc       897 PP       0.001900
   8069 H22        31.9800   32.1900   60.8100 hc       897 PP       0.001900
   8070 H1         34.5900   31.3100   59.4000 hc       897 PP       0.001800
   8071 HB1        32.9800   29.6000   61.3100 hc       897 PP       0.063200
   8072 HB2        34.5500   29.3100   60.5000 hc       897 PP       0.063200
   8073 HB3        34.4400   30.5700   61.7400 hc       897 PP       0.063200
   8074 C2         32.6300   30.4600   58.6700 c3       898 PP      -0.006100
   8075 C1         33.2300   29.1500   58.0400 c3       898 PP       0.076800
   8076 CB         32.2100   28.1100   57.6200 c3       898 PP      -0.265900
   8077 H21        31.5800   30.3400   58.9700 hc       898 PP       0.001900
   8078 H22        32.5200   31.1900   57.8600 hc       898 PP       0.001900
   8079 H1         33.8400   28.5600   58.7300 hc       898 PP       0.001800
   8080 HB1        31.7700   28.3800   56.6500 hc       898 PP       0.063200
   8081 HB2        32.6400   27.1000   57.5500 hc       898 PP       0.063200
   8082 HB3        31.4100   28.0900   58.3600 hc       898 PP       0.063200
   8083 C2         34.1000   29.6300   56.8400 c3       899 PP      -0.006100
   8084 C1         34.9400   28.4500   56.1500 c3       899 PP       0.076800
   8085 CB         35.6800   28.9500   54.8800 c3       899 PP      -0.265900
   8086 H21        33.4400   30.1000   56.1000 hc       899 PP       0.001900
   8087 H22        34.7700   30.4200   57.1800 hc       899 PP       0.001900
   8088 H1         34.2300   27.7100   55.7600 hc       899 PP       0.001800
   8089 HB1        36.4300   28.2900   54.4300 hc       899 PP       0.063200
   8090 HB2        35.0100   29.3200   54.1000 hc       899 PP       0.063200
   8091 HB3        36.2900   29.8300   55.1400 hc       899 PP       0.063200
   8092 C2         35.8700   27.6300   57.2000 c3       900 PP      -0.006100
   8093 C1         37.0900   26.8900   56.6600 c3       900 PP       0.076800
   8094 CB         38.0400   26.3800   57.7400 c3       900 PP      -0.265900
   8095 H21        35.2200   26.9400   57.7700 hc       900 PP       0.001900
   8096 H22        36.3400   28.2900   57.9500 hc       900 PP       0.001900
   8097 H1         36.8200   26.0600   55.9900 hc       900 PP       0.001800
   8098 HB1        38.5500   25.4900   57.3500 hc       900 PP       0.063200
   8099 HB2        38.7500   27.1100   58.1300 hc       900 PP       0.063200
   8100 HB3        37.4600   26.0400   58.6000 hc       900 PP       0.063200
   8101 C2         78.0300   61.7500   64.0400 c3       901 PP      -0.006100
   8102 C1         79.2300   61.0000   64.8000 c3       901 PP       0.076800
   8103 CB         80.1700   62.0300   65.4300 c3       901 PP      -0.265900
   8104 H21        77.7900   61.2600   63.0800 hc       901 PP       0.001900
   8105 H22        78.0900   62.8300   63.8600 hc       901 PP       0.001900
   8106 H1         79.7800   60.4100   64.0600 hc       901 PP       0.001800
   8107 HB1        79.6100   62.5200   66.2300 hc       901 PP       0.063200
   8108 HB2        81.0100   61.4400   65.8400 hc       901 PP       0.063200
   8109 HB3        80.5800   62.7900   64.7500 hc       901 PP       0.063200
   8110 C2         78.6500   60.0600   65.9000 c3       902 PP      -0.006100
   8111 C1         77.7200   58.9500   65.3300 c3       902 PP       0.076800
   8112 CB         78.5300   57.8800   64.6100 c3       902 PP      -0.265900
   8113 H21        79.4600   59.5600   66.4400 hc       902 PP       0.001900
   8114 H22        78.0800   60.8000   66.4700 hc       902 PP       0.001900
   8115 H1         76.9100   59.3000   64.6800 hc       902 PP       0.001800
   8116 HB1        77.9600   56.9500   64.6000 hc       902 PP       0.063200
   8117 HB2        78.7600   58.1500   63.5700 hc       902 PP       0.063200
   8118 HB3        79.5000   57.7500   65.1100 hc       902 PP       0.063200
   8119 C2         76.9400   58.3400   66.5600 c3       903 PP      -0.006100
   8120 C1         75.4500   58.5400   66.5600 c3       903 PP       0.076800
   8121 CB         75.0800   60.0000   66.4400 c3       903 PP      -0.265900
   8122 H21        77.1700   57.2800   66.7200 hc       903 PP       0.001900
   8123 H22        77.3600   58.7300   67.5000 hc       903 PP       0.001900
   8124 H1         75.0800   58.1400   67.5100 hc       903 PP       0.001800
   8125 HB1        74.0100   60.1100   66.2300 hc       903 PP       0.063200
   8126 HB2        75.2400   60.5300   67.3900 hc       903 PP       0.063200
   8127 HB3        75.6900   60.5900   65.7500 hc       903 PP       0.063200
   8128 C2         74.7000   57.6200   65.5400 c3       904 PP      -0.006100
   8129 C1         73.4300   56.8000   65.9900 c3       904 PP       0.076800
   8130 CB         72.2900   57.6900   66.4400 c3       904 PP      -0.265900
   8131 H21        74.2900   58.2700   64.7500 hc       904 PP       0.001900
   8132 H22        75.4100   57.0200   64.9600 hc       904 PP       0.001900
   8133 H1         73.6100   56.3500   66.9700 hc       904 PP       0.001800
   8134 HB1        71.8500   58.2000   65.5700 hc       904 PP       0.063200
   8135 HB2        71.4600   57.0700   66.7900 hc       904 PP       0.063200
   8136 HB3        72.5700   58.3600   67.2600 hc       904 PP       0.063200
   8137 C2         73.0800   55.5500   65.1700 c3       905 PP      -0.006100
   8138 C1         74.1600   54.5500   64.7700 c3       905 PP       0.076800
   8139 CB         74.9300   54.0000   65.9700 c3       905 PP      -0.265900
   8140 H21        72.2300   55.0100   65.6100 hc       905 PP       0.001900
   8141 H22        72.7500   56.0700   64.2600 hc       905 PP       0.001900
   8142 H1         74.9300   55.0900   64.2100 hc       905 PP       0.001800
   8143 HB1        75.6200   53.2100   65.6300 hc       905 PP       0.063200
   8144 HB2        75.4800   54.8000   66.4700 hc       905 PP       0.063200
   8145 HB3        74.3100   53.5700   66.7600 hc       905 PP       0.063200
   8146 C2         73.5500   53.4600   63.8800 c3       906 PP      -0.006100
   8147 C1         73.0200   53.7600   62.4400 c3       906 PP       0.076800
   8148 CB         74.1600   54.1600   61.5900 c3       906 PP      -0.265900
   8149 H21        74.3500   52.7300   63.7000 hc       906 PP       0.001900
   8150 H22        72.8000   52.9400   64.4800 hc       906 PP       0.001900
   8151 H1         72.5000   54.7200   62.4600 hc       906 PP       0.001800
   8152 HB1        74.7400   55.0000   62.0100 hc       906 PP       0.063200
   8153 HB2        74.9200   53.3900   61.4500 hc       906 PP       0.063200
   8154 HB3        73.7700   54.4800   60.6100 hc       906 PP       0.063200
   8155 C2         72.0500   52.7500   61.8300 c3       907 PP      -0.006100
   8156 C1         72.4900   51.5400   61.0300 c3       907 PP       0.076800
   8157 CB         71.5400   50.3600   61.1400 c3       907 PP      -0.265900
   8158 H21        71.3900   52.3600   62.6200 hc       907 PP       0.001900
   8159 H22        71.4200   53.3200   61.1400 hc       907 PP       0.001900
   8160 H1         73.4800   51.3000   61.4200 hc       907 PP       0.001800
   8161 HB1        70.5000   50.6500   60.9300 hc       907 PP       0.063200
   8162 HB2        71.8800   49.5800   60.4500 hc       907 PP       0.063200
   8163 HB3        71.5600   49.9500   62.1600 hc       907 PP       0.063200
   8164 C2         72.6800   51.9800   59.5300 c3       908 PP      -0.006100
   8165 C1         73.5400   50.9800   58.6500 c3       908 PP       0.076800
   8166 CB         73.5400   51.4000   57.1400 c3       908 PP      -0.265900
   8167 H21        71.7100   52.1400   59.0400 hc       908 PP       0.001900
   8168 H22        73.2100   52.9500   59.5700 hc       908 PP       0.001900
   8169 H1         73.0100   50.0300   58.5700 hc       908 PP       0.001800
   8170 HB1        73.8600   50.7300   56.3400 hc       908 PP       0.063200
   8171 HB2        72.5500   51.7900   56.8700 hc       908 PP       0.063200
   8172 HB3        74.3400   52.1400   57.0000 hc       908 PP       0.063200
   8173 C2         75.0200   50.8300   59.2900 c3       909 PP      -0.006100
   8174 C1         75.3600   49.5300   60.0500 c3       909 PP       0.076800
   8175 CB         75.3100   48.3100   59.0700 c3       909 PP      -0.265900
   8176 H21        75.8000   50.8300   58.5200 hc       909 PP       0.001900
   8177 H22        75.2400   51.7400   59.8600 hc       909 PP       0.001900
   8178 H1         74.6300   49.3800   60.8600 hc       909 PP       0.001800
   8179 HB1        75.2600   47.3100   59.5100 hc       909 PP       0.063200
   8180 HB2        74.3600   48.3800   58.5100 hc       909 PP       0.063200
   8181 HB3        76.1400   48.3900   58.3500 hc       909 PP       0.063200
   8182 C2         76.8300   49.6300   60.6900 c3       910 PP      -0.006100
   8183 C1         77.1100   50.8400   61.6100 c3       910 PP       0.076800
   8184 CB         76.5800   50.6000   63.0100 c3       910 PP      -0.265900
   8185 H21        77.1200   48.7100   61.2200 hc       910 PP       0.001900
   8186 H22        77.5200   49.7000   59.8400 hc       910 PP       0.001900
   8187 H1         76.4900   51.7000   61.3000 hc       910 PP       0.001800
   8188 HB1        76.6000   51.5000   63.6400 hc       910 PP       0.063200
   8189 HB2        75.5200   50.3300   62.9900 hc       910 PP       0.063200
   8190 HB3        77.0800   49.8100   63.5800 hc       910 PP       0.063200
   8191 C2         78.6200   51.3300   61.6700 c3       911 PP      -0.006100
   8192 C1         78.8900   52.6000   60.8400 c3       911 PP       0.076800
   8193 CB         78.3000   53.9200   61.5100 c3       911 PP      -0.265900
   8194 H21        78.8300   51.6100   62.7100 hc       911 PP       0.001900
   8195 H22        79.2900   50.5000   61.4000 hc       911 PP       0.001900
   8196 H1         78.3600   52.3800   59.9000 hc       911 PP       0.001800
   8197 HB1        78.7000   54.8500   61.0900 hc       911 PP       0.063200
   8198 HB2        77.2100   53.9900   61.5000 hc       911 PP       0.063200
   8199 HB3        78.4700   54.0400   62.5900 hc       911 PP       0.063200
   8200 C2          0.3500   52.9200   60.3800 c3       912 PP      -0.006100
   8201 C1          1.3400   53.3000   61.5300 c3       912 PP       0.076800
   8202 CB          1.8800   52.0200   62.1300 c3       912 PP      -0.265900
   8203 H21         0.8300   52.0600   59.9000 hc       912 PP       0.001900
   8204 H22         0.3000   53.7000   59.6200 hc       912 PP       0.001900
   8205 H1          0.7400   53.7900   62.3100 hc       912 PP       0.001800
   8206 HB1         2.4100   51.5000   61.3200 hc       912 PP       0.063200
   8207 HB2         2.6100   52.1800   62.9200 hc       912 PP       0.063200
   8208 HB3         1.0800   51.3900   62.5400 hc       912 PP       0.063200
   8209 C2          2.5300   54.2300   61.1300 c3       913 PP      -0.006100
   8210 C1          3.0200   55.2800   62.1700 c3       913 PP       0.076800
   8211 CB          4.5000   55.5400   61.8400 c3       913 PP      -0.265900
   8212 H21         3.3700   53.6100   60.8100 hc       913 PP       0.001900
   8213 H22         2.2300   54.7500   60.2100 hc       913 PP       0.001900
   8214 H1          2.9000   54.8500   63.1700 hc       913 PP       0.001800
   8215 HB1         4.9900   55.9100   62.7600 hc       913 PP       0.063200
   8216 HB2         5.0400   54.6100   61.6300 hc       913 PP       0.063200
   8217 HB3         4.5500   56.2500   61.0100 hc       913 PP       0.063200
   8218 C2          2.1200   56.6700   62.0800 c3       914 PP      -0.006100
   8219 C1          2.7800   57.8100   62.9300 c3       914 PP       0.076800
   8220 CB          1.9700   59.1400   62.6000 c3       914 PP      -0.265900
   8221 H21         1.8500   56.9700   61.0600 hc       914 PP       0.001900
   8222 H22         1.1500   56.4300   62.5300 hc       914 PP       0.001900
   8223 H1          3.8100   58.0000   62.5900 hc       914 PP       0.001800
   8224 HB1         0.9600   59.0800   63.0300 hc       914 PP       0.063200
   8225 HB2         2.3900   60.0700   63.0000 hc       914 PP       0.063200
   8226 HB3         1.9300   59.1600   61.5100 hc       914 PP       0.063200
   8227 C2          2.8000   57.4900   64.4700 c3       915 PP      -0.006100
   8228 C1          3.1400   58.7100   65.4200 c3       915 PP       0.076800
   8229 CB          2.8500   58.3200   66.8400 c3       915 PP      -0.265900
   8230 H21         1.8100   57.1500   64.8000 hc       915 PP       0.001900
   8231 H22         3.5100   56.7100   64.7600 hc       915 PP       0.001900
   8232 H1          2.4600   59.5000   65.0700 hc       915 PP       0.001800
   8233 HB1         2.9200   59.1600   67.5400 hc       915 PP       0.063200
   8234 HB2         1.8100   57.9800   66.8100 hc       915 PP       0.063200
   8235 HB3         3.5000   57.5300   67.2300 hc       915 PP       0.063200
   8236 C2          4.6000   59.2400   65.2300 c3       916 PP      -0.006100
   8237 C1          4.7600   60.8200   65.2600 c3       916 PP       0.076800
   8238 CB          4.1900   61.3500   66.5900 c3       916 PP      -0.265900
   8239 H21         5.2400   58.7700   65.9800 hc       916 PP       0.001900
   8240 H22         4.9100   59.0200   64.2000 hc       916 PP       0.001900
   8241 H1          4.0900   61.3500   64.5700 hc       916 PP       0.001800
   8242 HB1         4.5800   60.6900   67.3700 hc       916 PP       0.063200
   8243 HB2         4.5300   62.3700   66.8200 hc       916 PP       0.063200
   8244 HB3         3.1000   61.3100   66.5800 hc       916 PP       0.063200
   8245 C2          6.3000   61.2000   65.1300 c3       917 PP      -0.006100
   8246 C1          6.8600   61.1600   63.7000 c3       917 PP       0.076800
   8247 CB          7.3300   62.6100   63.2700 c3       917 PP      -0.265900
   8248 H21         6.2900   62.2500   65.4400 hc       917 PP       0.001900
   8249 H22         6.8900   60.6100   65.8500 hc       917 PP       0.001900
   8250 H1          6.0900   60.8500   62.9800 hc       917 PP       0.001800
   8251 HB1         6.5000   63.2900   63.0400 hc       917 PP       0.063200
   8252 HB2         8.0300   63.0700   63.9700 hc       917 PP       0.063200
   8253 HB3         7.8500   62.4300   62.3200 hc       917 PP       0.063200
   8254 C2          8.1500   60.2700   63.5800 c3       918 PP      -0.006100
   8255 C1          7.8700   58.6800   63.5300 c3       918 PP       0.076800
   8256 CB          7.1100   58.2700   62.3300 c3       918 PP      -0.265900
   8257 H21         8.6600   60.5900   62.6600 hc       918 PP       0.001900
   8258 H22         8.8100   60.5100   64.4200 hc       918 PP       0.001900
   8259 H1          7.2100   58.4700   64.3900 hc       918 PP       0.001800
   8260 HB1         7.7800   58.1800   61.4700 hc       918 PP       0.063200
   8261 HB2         6.7500   57.2600   62.5500 hc       918 PP       0.063200
   8262 HB3         6.3700   59.0300   62.0700 hc       918 PP       0.063200
   8263 C2          9.3400   57.9100   63.6700 c3       919 PP      -0.006100
   8264 C1         10.0200   58.0500   64.9800 c3       919 PP       0.076800
   8265 CB          9.0800   57.7100   66.1900 c3       919 PP      -0.265900
   8266 H21         9.2200   56.8700   63.3400 hc       919 PP       0.001900
   8267 H22        10.0000   58.3000   62.8900 hc       919 PP       0.001900
   8268 H1         10.2300   59.1100   65.1800 hc       919 PP       0.001800
   8269 HB1         9.5500   57.3800   67.1300 hc       919 PP       0.063200
   8270 HB2         8.4900   58.6100   66.3900 hc       919 PP       0.063200
   8271 HB3         8.3200   56.9500   65.9400 hc       919 PP       0.063200
   8272 C2         11.3100   57.2200   65.2300 c3       920 PP      -0.006100
   8273 C1         12.3500   57.9600   66.2300 c3       920 PP       0.076800
   8274 CB         13.3100   56.8400   66.7500 c3       920 PP      -0.265900
   8275 H21        11.1600   56.1700   65.4900 hc       920 PP       0.001900
   8276 H22        11.7800   57.1000   64.2400 hc       920 PP       0.001900
   8277 H1         11.7800   58.3200   67.1000 hc       920 PP       0.001800
   8278 HB1        14.1900   57.3500   67.1800 hc       920 PP       0.063200
   8279 HB2        12.7200   56.2600   67.4800 hc       920 PP       0.063200
   8280 HB3        13.6900   56.1900   65.9600 hc       920 PP       0.063200
   8281 C2         13.1500   59.1100   65.5300 c3       921 PP      -0.006100
   8282 C1         13.5200   60.3000   66.5100 c3       921 PP       0.076800
   8283 CB         14.9300   60.8200   66.3200 c3       921 PP      -0.265900
   8284 H21        14.0600   58.6100   65.1900 hc       921 PP       0.001900
   8285 H22        12.6300   59.4600   64.6300 hc       921 PP       0.001900
   8286 H1         13.5700   59.8500   67.5200 hc       921 PP       0.001800
   8287 HB1        15.7400   60.2300   66.7700 hc       921 PP       0.063200
   8288 HB2        15.0500   60.8900   65.2300 hc       921 PP       0.063200
   8289 HB3        15.0300   61.7900   66.8300 hc       921 PP       0.063200
   8290 C2         12.5000   61.3700   66.5000 c3       922 PP      -0.006100
   8291 C1         12.6800   62.3800   65.3300 c3       922 PP       0.076800
   8292 CB         12.0400   61.8900   64.0300 c3       922 PP      -0.265900
   8293 H21        11.5100   60.9000   66.5100 hc       922 PP       0.001900
   8294 H22        12.4500   61.8500   67.4800 hc       922 PP       0.001900
   8295 H1         13.7100   62.5800   65.0100 hc       922 PP       0.001800
   8296 HB1        12.6200   61.1400   63.4800 hc       922 PP       0.063200
   8297 HB2        11.0600   61.4300   64.2100 hc       922 PP       0.063200
   8298 HB3        11.8500   62.7300   63.3500 hc       922 PP       0.063200
   8299 C2         12.0600   63.7100   65.7200 c3       923 PP      -0.006100
   8300 C1         10.5700   63.7700   65.4600 c3       923 PP       0.076800
   8301 CB          9.7200   62.6900   66.2800 c3       923 PP      -0.265900
   8302 H21        12.1700   64.0100   66.7700 hc       923 PP       0.001900
   8303 H22        12.6000   64.5100   65.2100 hc       923 PP       0.001900
   8304 H1         10.3200   63.7000   64.4000 hc       923 PP       0.001800
   8305 HB1         8.7100   63.0700   66.4800 hc       923 PP       0.063200
   8306 HB2         9.6800   61.6900   65.8300 hc       923 PP       0.063200
   8307 HB3        10.1300   62.6200   67.3000 hc       923 PP       0.063200
   8308 C2         10.0100   65.2000   65.9200 c3       924 PP      -0.006100
   8309 C1         10.7700   66.4600   65.4400 c3       924 PP       0.076800
   8310 CB         10.5800   66.6000   63.8700 c3       924 PP      -0.265900
   8311 H21         8.9600   65.1700   65.6100 hc       924 PP       0.001900
   8312 H22         9.9900   65.1700   67.0200 hc       924 PP       0.001900
   8313 H1         11.8200   66.3600   65.7500 hc       924 PP       0.001800
   8314 HB1        11.0300   67.5500   63.5600 hc       924 PP       0.063200
   8315 HB2        11.0700   65.7900   63.3100 hc       924 PP       0.063200
   8316 HB3         9.5100   66.5900   63.6000 hc       924 PP       0.063200
   8317 C2         10.0100   67.6700   66.1000 c3       925 PP      -0.006100
   8318 C1         10.5900   69.0700   65.9000 c3       925 PP       0.076800
   8319 CB          9.7400   70.0000   66.6600 c3       925 PP      -0.265900
   8320 H21         9.0000   67.6000   65.6800 hc       925 PP       0.001900
   8321 H22         9.8300   67.4400   67.1600 hc       925 PP       0.001900
   8322 H1         10.3400   69.3000   64.8600 hc       925 PP       0.001800
   8323 HB1         8.6800   69.7700   66.5000 hc       925 PP       0.063200
   8324 HB2         9.7800   69.8200   67.7400 hc       925 PP       0.063200
   8325 HB3         9.9600   71.0600   66.4400 hc       925 PP       0.063200
   8326 C2         12.1400   69.1700   66.2300 c3       926 PP      -0.006100
   8327 C1         12.8100   70.5100   66.2400 c3       926 PP       0.076800
   8328 CB         14.3400   70.4900   66.7100 c3       926 PP      -0.265900
   8329 H21        12.2300   68.6900   67.2200 hc       926 PP       0.001900
   8330 H22        12.6100   68.4400   65.5700 hc       926 PP       0.001900
   8331 H1         12.3900   71.0500   67.1000 hc       926 PP       0.001800
   8332 HB1        14.9200   70.5300   65.7800 hc       926 PP       0.063200
   8333 HB2        14.5800   71.4400   67.2200 hc       926 PP       0.063200
   8334 HB3        14.6000   69.5700   67.2500 hc       926 PP       0.063200
   8335 C2         12.5300   71.3000   64.9100 c3       927 PP      -0.006100
   8336 C1         13.1900   72.7200   64.8500 c3       927 PP       0.076800
   8337 CB         13.3400   73.1700   63.2800 c3       927 PP      -0.265900
   8338 H21        12.7200   70.7800   63.9600 hc       927 PP       0.001900
   8339 H22        11.4400   71.4000   64.9300 hc       927 PP       0.001900
   8340 H1         14.2100   72.6500   65.2300 hc       927 PP       0.001800
   8341 HB1        12.3500   73.1400   62.8200 hc       927 PP       0.063200
   8342 HB2        13.6400   74.2300   63.2100 hc       927 PP       0.063200
   8343 HB3        14.0700   72.6600   62.6400 hc       927 PP       0.063200
   8344 C2         12.5100   73.8300   65.7300 c3       928 PP      -0.006100
   8345 C1         13.0800   75.2500   65.7100 c3       928 PP       0.076800
   8346 CB         12.0500   76.1500   66.5800 c3       928 PP      -0.265900
   8347 H21        11.4200   73.8100   65.5500 hc       928 PP       0.001900
   8348 H22        12.7200   73.4600   66.7400 hc       928 PP       0.001900
   8349 H1         12.9700   75.5200   64.6500 hc       928 PP       0.001800
   8350 HB1        12.0200   75.8100   67.6200 hc       928 PP       0.063200
   8351 HB2        12.1300   77.2400   66.5200 hc       928 PP       0.063200
   8352 HB3        11.0200   76.0300   66.2000 hc       928 PP       0.063200
   8353 C2         14.5900   75.3400   66.2100 c3       929 PP      -0.006100
   8354 C1         15.3000   76.6400   65.7300 c3       929 PP       0.076800
   8355 CB         15.8300   77.3900   66.9700 c3       929 PP      -0.265900
   8356 H21        14.6300   75.1500   67.2800 hc       929 PP       0.001900
   8357 H22        15.1700   74.5100   65.7800 hc       929 PP       0.001900
   8358 H1         14.6200   77.3300   65.2300 hc       929 PP       0.001800
   8359 HB1        16.6400   76.9300   67.5600 hc       929 PP       0.063200
   8360 HB2        16.1700   78.4100   66.7500 hc       929 PP       0.063200
   8361 HB3        14.9300   77.4800   67.5900 hc       929 PP       0.063200
   8362 C2         16.4900   76.2900   64.7400 c3       930 PP      -0.006100
   8363 C1         16.1200   75.4900   63.4900 c3       930 PP       0.076800
   8364 CB         17.2400   75.5600   62.4900 c3       930 PP      -0.265900
   8365 H21        17.2400   75.6700   65.2400 hc       930 PP       0.001900
   8366 H22        16.9700   77.2000   64.3800 hc       930 PP       0.001900
   8367 H1         15.2100   75.8500   62.9800 hc       930 PP       0.001800
   8368 HB1        17.1100   74.6600   61.8800 hc       930 PP       0.063200
   8369 HB2        17.1200   76.4500   61.8700 hc       930 PP       0.063200
   8370 HB3        18.2400   75.6200   62.9500 hc       930 PP       0.063200
   8371 C2         11.3700   76.7000   56.1100 c3       931 PP      -0.006100
   8372 C1         10.3200   75.5000   56.4900 c3       931 PP       0.076800
   8373 CB          9.6900   74.9900   55.1100 c3       931 PP      -0.265900
   8374 H21        11.7000   76.5300   55.0800 hc       931 PP       0.001900
   8375 H22        11.0100   77.7300   56.0900 hc       931 PP       0.001900
   8376 H1          9.5200   75.8900   57.1300 hc       931 PP       0.001800
   8377 HB1         9.4300   75.7400   54.3500 hc       931 PP       0.063200
   8378 HB2        10.2700   74.1600   54.7000 hc       931 PP       0.063200
   8379 HB3         8.7800   74.4600   55.4200 hc       931 PP       0.063200
   8380 C2         11.0000   74.2600   57.2100 c3       932 PP      -0.006100
   8381 C1         11.6700   74.7500   58.5900 c3       932 PP       0.076800
   8382 CB         10.5900   75.0000   59.7000 c3       932 PP      -0.265900
   8383 H21        10.2800   73.4800   57.4900 hc       932 PP       0.001900
   8384 H22        11.7900   73.8900   56.5400 hc       932 PP       0.001900
   8385 H1         11.9800   75.7900   58.4400 hc       932 PP       0.001800
   8386 HB1         9.8600   75.7700   59.4300 hc       932 PP       0.063200
   8387 HB2         9.9900   74.0900   59.8400 hc       932 PP       0.063200
   8388 HB3        11.0000   75.2200   60.6900 hc       932 PP       0.063200
   8389 C2         12.9100   73.8500   58.9700 c3       933 PP      -0.006100
   8390 C1         14.3600   74.3000   58.5800 c3       933 PP       0.076800
   8391 CB         15.1700   74.5200   59.8900 c3       933 PP      -0.265900
   8392 H21        12.8600   73.5500   60.0200 hc       933 PP       0.001900
   8393 H22        12.8000   72.8500   58.5300 hc       933 PP       0.001900
   8394 H1         14.2700   75.2500   58.0200 hc       933 PP       0.001800
   8395 HB1        15.3300   73.5900   60.4600 hc       933 PP       0.063200
   8396 HB2        16.1000   75.0300   59.6000 hc       933 PP       0.063200
   8397 HB3        14.7200   75.2600   60.5500 hc       933 PP       0.063200
   8398 C2         15.0800   73.2700   57.6500 c3       934 PP      -0.006100
   8399 C1         14.5900   73.1200   56.1300 c3       934 PP       0.076800
   8400 CB         14.3100   74.4300   55.3600 c3       934 PP      -0.265900
   8401 H21        16.1000   73.6100   57.4400 hc       934 PP       0.001900
   8402 H22        15.1400   72.3300   58.2000 hc       934 PP       0.001900
   8403 H1         13.6600   72.5400   56.1900 hc       934 PP       0.001800
   8404 HB1        13.5300   75.0500   55.8200 hc       934 PP       0.063200
   8405 HB2        15.2400   75.0100   55.4200 hc       934 PP       0.063200
   8406 HB3        13.9900   74.2400   54.3300 hc       934 PP       0.063200
   8407 C2         15.6600   72.2400   55.4200 c3       935 PP      -0.006100
   8408 C1         15.8800   70.7700   55.9300 c3       935 PP       0.076800
   8409 CB         14.5900   69.8800   55.7800 c3       935 PP      -0.265900
   8410 H21        15.2000   72.0400   54.4400 hc       935 PP       0.001900
   8411 H22        16.5900   72.7600   55.1600 hc       935 PP       0.001900
   8412 H1         15.9700   70.7400   57.0300 hc       935 PP       0.001800
   8413 HB1        14.8700   68.8300   55.9500 hc       935 PP       0.063200
   8414 HB2        13.8300   69.9600   56.5700 hc       935 PP       0.063200
   8415 HB3        14.2200   69.8900   54.7500 hc       935 PP       0.063200
   8416 C2         16.9400   70.0400   55.2100 c3       936 PP      -0.006100
   8417 C1         18.3200   70.7300   55.2300 c3       936 PP       0.076800
   8418 CB         18.8800   70.8200   56.7000 c3       936 PP      -0.265900
   8419 H21        17.0400   69.0000   55.5600 hc       936 PP       0.001900
   8420 H22        16.6500   69.8800   54.1600 hc       936 PP       0.001900
   8421 H1         18.2000   71.7200   54.7700 hc       936 PP       0.001800
   8422 HB1        18.2200   71.3300   57.4100 hc       936 PP       0.063200
   8423 HB2        19.0800   69.7900   57.0200 hc       936 PP       0.063200
   8424 HB3        19.7900   71.4300   56.6800 hc       936 PP       0.063200
   8425 C2         19.3700   70.0800   54.3800 c3       937 PP      -0.006100
   8426 C1         20.2700   71.1100   53.7100 c3       937 PP       0.076800
   8427 CB         21.6300   70.6800   53.1000 c3       937 PP      -0.265900
   8428 H21        20.0600   69.4900   55.0000 hc       937 PP       0.001900
   8429 H22        18.9300   69.4300   53.6200 hc       937 PP       0.001900
   8430 H1         20.4400   71.8600   54.4900 hc       937 PP       0.001800
   8431 HB1        21.5700   69.8500   52.3800 hc       937 PP       0.063200
   8432 HB2        22.0200   71.4900   52.4900 hc       937 PP       0.063200
   8433 HB3        22.4000   70.4800   53.8600 hc       937 PP       0.063200
   8434 C2         19.4500   71.9200   52.6100 c3       938 PP      -0.006100
   8435 C1         19.4300   73.4200   52.7000 c3       938 PP       0.076800
   8436 CB         20.9300   73.9600   52.5600 c3       938 PP      -0.265900
   8437 H21        19.7800   71.6600   51.6000 hc       938 PP       0.001900
   8438 H22        18.4100   71.5800   52.5500 hc       938 PP       0.001900
   8439 H1         19.0600   73.6200   53.7200 hc       938 PP       0.001800
   8440 HB1        20.9700   75.0500   52.5000 hc       938 PP       0.063200
   8441 HB2        21.6200   73.6200   53.3500 hc       938 PP       0.063200
   8442 HB3        21.3100   73.5500   51.6200 hc       938 PP       0.063200
   8443 C2         18.5200   74.0900   51.5900 c3       939 PP      -0.006100
   8444 C1         17.0100   74.0100   52.0300 c3       939 PP       0.076800
   8445 CB         16.6200   75.1100   53.0400 c3       939 PP      -0.265900
   8446 H21        18.7800   75.1600   51.5300 hc       939 PP       0.001900
   8447 H22        18.7100   73.7000   50.5900 hc       939 PP       0.001900
   8448 H1         16.7800   73.0700   52.5500 hc       939 PP       0.001800
   8449 HB1        16.8500   76.1100   52.6500 hc       939 PP       0.063200
   8450 HB2        15.5200   75.1100   53.1300 hc       939 PP       0.063200
   8451 HB3        17.0500   74.9600   54.0400 hc       939 PP       0.063200
   8452 C2         16.2400   74.1400   50.7600 c3       940 PP      -0.006100
   8453 C1         15.6000   72.7900   50.2700 c3       940 PP       0.076800
   8454 CB         16.6700   71.7000   49.8900 c3       940 PP      -0.265900
   8455 H21        15.3900   74.8400   50.8300 hc       940 PP       0.001900
   8456 H22        16.8100   74.5800   49.9300 hc       940 PP       0.001900
   8457 H1         15.0400   73.0500   49.3600 hc       940 PP       0.001800
   8458 HB1        17.0700   71.1800   50.7700 hc       940 PP       0.063200
   8459 HB2        16.1300   70.9400   49.3100 hc       940 PP       0.063200
   8460 HB3        17.4900   72.0900   49.2900 hc       940 PP       0.063200
   8461 C2         14.5600   72.1700   51.2300 c3       941 PP      -0.006100
   8462 C1         13.2600   73.0500   51.4700 c3       941 PP       0.076800
   8463 CB         12.3800   73.2900   50.2200 c3       941 PP      -0.265900
   8464 H21        14.3400   71.2000   50.7900 hc       941 PP       0.001900
   8465 H22        15.0500   72.0300   52.2100 hc       941 PP       0.001900
   8466 H1         13.5500   73.9800   51.9700 hc       941 PP       0.001800
   8467 HB1        11.3200   73.3300   50.4700 hc       941 PP       0.063200
   8468 HB2        12.7200   74.2500   49.7900 hc       941 PP       0.063200
   8469 HB3        12.4500   72.4400   49.5300 hc       941 PP       0.063200
   8470 C2         12.5000   72.3400   52.6300 c3       942 PP      -0.006100
   8471 C1         11.9700   70.8100   52.4200 c3       942 PP       0.076800
   8472 CB         11.4700   70.2600   53.7800 c3       942 PP      -0.265900
   8473 H21        13.0000   72.3600   53.6000 hc       942 PP       0.001900
   8474 H22        11.6000   72.9000   52.9200 hc       942 PP       0.001900
   8475 H1         12.8300   70.2200   52.0600 hc       942 PP       0.001800
   8476 HB1        11.1100   69.2400   53.6000 hc       942 PP       0.063200
   8477 HB2        12.3000   70.2700   54.5000 hc       942 PP       0.063200
   8478 HB3        10.7100   70.9400   54.1900 hc       942 PP       0.063200
   8479 C2         10.7500   70.6800   51.3400 c3       943 PP      -0.006100
   8480 C1         10.0200   69.2500   51.1800 c3       943 PP       0.076800
   8481 CB          8.7300   69.3000   50.2800 c3       943 PP      -0.265900
   8482 H21         9.8900   71.3400   51.5400 hc       943 PP       0.001900
   8483 H22        11.0000   70.8600   50.2900 hc       943 PP       0.001900
   8484 H1          9.6400   69.0100   52.1800 hc       943 PP       0.001800
   8485 HB1         8.1100   68.4000   50.4200 hc       943 PP       0.063200
   8486 HB2         8.0000   70.0300   50.6300 hc       943 PP       0.063200
   8487 HB3         8.9700   69.3300   49.2100 hc       943 PP       0.063200
   8488 C2         11.0900   68.1900   50.8400 c3       944 PP      -0.006100
   8489 C1         10.5600   66.6900   50.6800 c3       944 PP       0.076800
   8490 CB         11.5900   65.7900   49.9600 c3       944 PP      -0.265900
   8491 H21        11.4000   68.5000   49.8400 hc       944 PP       0.001900
   8492 H22        11.9500   68.2300   51.5200 hc       944 PP       0.001900
   8493 H1          9.6900   66.7000   50.0100 hc       944 PP       0.001800
   8494 HB1        12.5300   65.9300   50.5100 hc       944 PP       0.063200
   8495 HB2        11.3400   64.7500   50.2100 hc       944 PP       0.063200
   8496 HB3        11.7300   66.1400   48.9300 hc       944 PP       0.063200
   8497 C2         10.1500   66.0100   52.0000 c3       945 PP      -0.006100
   8498 C1          8.8000   65.3300   51.9000 c3       945 PP       0.076800
   8499 CB          8.7100   64.2900   50.8000 c3       945 PP      -0.265900
   8500 H21        10.9000   65.2800   52.3300 hc       945 PP       0.001900
   8501 H22        10.0800   66.7900   52.7600 hc       945 PP       0.001900
   8502 H1          8.0200   66.0800   51.7000 hc       945 PP       0.001800
   8503 HB1         9.1400   63.3200   51.0500 hc       945 PP       0.063200
   8504 HB2         7.6400   64.0400   50.7600 hc       945 PP       0.063200
   8505 HB3         9.0500   64.6400   49.8100 hc       945 PP       0.063200
   8506 C2          8.4000   64.8500   53.2600 c3       946 PP      -0.006100
   8507 C1          8.3000   65.8500   54.4700 c3       946 PP       0.076800
   8508 CB          7.2900   66.9600   54.2100 c3       946 PP      -0.265900
   8509 H21         7.4500   64.3100   53.2900 hc       946 PP       0.001900
   8510 H22         9.2100   64.1500   53.4900 hc       946 PP       0.001900
   8511 H1          9.2500   66.3600   54.6400 hc       946 PP       0.001800
   8512 HB1         7.3000   67.3400   53.1800 hc       946 PP       0.063200
   8513 HB2         6.3000   66.5300   54.4500 hc       946 PP       0.063200
   8514 HB3         7.5200   67.7800   54.9000 hc       946 PP       0.063200
   8515 C2          8.0400   65.0400   55.8100 c3       947 PP      -0.006100
   8516 C1          8.3200   65.7500   57.2000 c3       947 PP       0.076800
   8517 CB          9.6200   66.5600   57.1500 c3       947 PP      -0.265900
   8518 H21         7.1500   64.4100   55.7800 hc       947 PP       0.001900
   8519 H22         8.7800   64.2300   55.7700 hc       947 PP       0.001900
   8520 H1          8.5200   64.9800   57.9600 hc       947 PP       0.001800
   8521 HB1        10.5100   66.0400   56.7600 hc       947 PP       0.063200
   8522 HB2         9.5400   67.3900   56.4500 hc       947 PP       0.063200
   8523 HB3         9.9300   66.8500   58.1700 hc       947 PP       0.063200
   8524 C2          7.1700   66.5700   57.8800 c3       948 PP      -0.006100
   8525 C1          5.8200   65.8400   58.0300 c3       948 PP       0.076800
   8526 CB          6.1000   64.6900   59.1000 c3       948 PP      -0.265900
   8527 H21         7.4700   67.0300   58.8300 hc       948 PP       0.001900
   8528 H22         7.0000   67.4400   57.2200 hc       948 PP       0.001900
   8529 H1          5.6700   65.2900   57.0900 hc       948 PP       0.001800
   8530 HB1         6.4400   65.2000   60.0100 hc       948 PP       0.063200
   8531 HB2         5.1100   64.2800   59.3400 hc       948 PP       0.063200
   8532 HB3         6.8600   63.9200   58.9000 hc       948 PP       0.063200
   8533 C2          4.6000   66.6200   58.4500 c3       949 PP      -0.006100
   8534 C1          3.2500   65.8800   58.1400 c3       949 PP       0.076800
   8535 CB          2.2600   66.2400   59.2300 c3       949 PP      -0.265900
   8536 H21         4.7200   67.0700   59.4400 hc       949 PP       0.001900
   8537 H22         4.5300   67.4500   57.7300 hc       949 PP       0.001900
   8538 H1          3.4300   64.8000   58.1800 hc       949 PP       0.001800
   8539 HB1         2.6900   65.9700   60.2000 hc       949 PP       0.063200
   8540 HB2         2.0000   67.3100   59.2500 hc       949 PP       0.063200
   8541 HB3         1.2800   65.7500   59.1200 hc       949 PP       0.063200
   8542 C2          2.6900   66.1900   56.7700 c3       950 PP      -0.006100
   8543 C1          1.5400   65.2800   56.2600 c3       950 PP       0.076800
   8544 CB          1.0900   65.7600   54.8500 c3       950 PP      -0.265900
   8545 H21         2.4500   67.2600   56.7000 hc       950 PP       0.001900
   8546 H22         3.5300   66.1100   56.0700 hc       950 PP       0.001900
   8547 H1          0.6800   65.4700   56.9200 hc       950 PP       0.001800
   8548 HB1         0.5900   64.9300   54.3200 hc       950 PP       0.063200
   8549 HB2         0.3100   66.5300   54.8900 hc       950 PP       0.063200
   8550 HB3         1.9700   66.0300   54.2500 hc       950 PP       0.063200
   8551 C2          1.7600   63.7400   56.3600 c3       951 PP      -0.006100
   8552 C1          2.8200   63.1300   55.4000 c3       951 PP       0.076800
   8553 CB          4.2200   63.6200   55.6000 c3       951 PP      -0.265900
   8554 H21         1.9600   63.4900   57.4100 hc       951 PP       0.001900
   8555 H22         0.7700   63.2900   56.1900 hc       951 PP       0.001900
   8556 H1          2.5800   63.3000   54.3400 hc       951 PP       0.001800
   8557 HB1         4.4700   63.7200   56.6700 hc       951 PP       0.063200
   8558 HB2         5.0200   62.9200   55.3300 hc       951 PP       0.063200
   8559 HB3         4.4400   64.5800   55.1300 hc       951 PP       0.063200
   8560 C2          2.9100   61.5400   55.4900 c3       952 PP      -0.006100
   8561 C1          2.6800   60.8100   56.8400 c3       952 PP       0.076800
   8562 CB          1.2200   60.4200   57.1200 c3       952 PP      -0.265900
   8563 H21         2.1400   61.2600   54.7600 hc       952 PP       0.001900
   8564 H22         3.8200   61.1500   55.0000 hc       952 PP       0.001900
   8565 H1          3.0700   61.4700   57.6200 hc       952 PP       0.001800
   8566 HB1         1.0700   59.7000   57.9400 hc       952 PP       0.063200
   8567 HB2         0.6000   61.2900   57.3900 hc       952 PP       0.063200
   8568 HB3         0.6900   60.1500   56.2000 hc       952 PP       0.063200
   8569 C2          3.6100   59.5800   56.8800 c3       953 PP      -0.006100
   8570 C1          3.8200   58.9200   58.2900 c3       953 PP       0.076800
   8571 CB          3.5700   57.3700   58.2600 c3       953 PP      -0.265900
   8572 H21         3.1900   58.7300   56.3200 hc       953 PP       0.001900
   8573 H22         4.6100   59.8900   56.5500 hc       953 PP       0.001900
   8574 H1          3.1700   59.3800   59.0400 hc       953 PP       0.001800
   8575 HB1         2.5100   57.2100   58.0200 hc       953 PP       0.063200
   8576 HB2         4.2700   57.0100   57.5000 hc       953 PP       0.063200
   8577 HB3         3.7400   56.9500   59.2600 hc       953 PP       0.063200
   8578 C2          5.2500   59.2300   58.8900 c3       954 PP      -0.006100
   8579 C1          5.5300   60.7600   59.1400 c3       954 PP       0.076800
   8580 CB          4.7100   61.3300   60.2700 c3       954 PP      -0.265900
   8581 H21         5.2900   58.6200   59.8000 hc       954 PP       0.001900
   8582 H22         6.0100   58.8500   58.2000 hc       954 PP       0.001900
   8583 H1          5.3100   61.2300   58.1800 hc       954 PP       0.001800
   8584 HB1         4.8000   60.6700   61.1400 hc       954 PP       0.063200
   8585 HB2         5.0800   62.3400   60.5200 hc       954 PP       0.063200
   8586 HB3         3.6700   61.3900   59.9300 hc       954 PP       0.063200
   8587 C2          7.1100   61.0000   59.4500 c3       955 PP      -0.006100
   8588 C1          8.1300   60.8100   58.2400 c3       955 PP       0.076800
   8589 CB          7.5000   61.1000   56.8000 c3       955 PP      -0.265900
   8590 H21         7.2500   61.9500   59.9600 hc       955 PP       0.001900
   8591 H22         7.3900   60.2700   60.2200 hc       955 PP       0.001900
   8592 H1          8.4800   59.7700   58.2300 hc       955 PP       0.001800
   8593 HB1         8.2600   60.9700   56.0200 hc       955 PP       0.063200
   8594 HB2         6.6700   60.4100   56.5800 hc       955 PP       0.063200
   8595 HB3         7.2000   62.1500   56.7700 hc       955 PP       0.063200
   8596 C2          9.4200   61.6900   58.5100 c3       956 PP      -0.006100
   8597 C1         10.1400   61.6100   59.8600 c3       956 PP       0.076800
   8598 CB         10.6000   60.2400   60.2600 c3       956 PP      -0.265900
   8599 H21        10.0300   61.3600   57.6500 hc       956 PP       0.001900
   8600 H22         9.2400   62.7200   58.1900 hc       956 PP       0.001900
   8601 H1          9.4700   61.7600   60.7100 hc       956 PP       0.001800
   8602 HB1         9.8400   59.4600   60.1100 hc       956 PP       0.063200
   8603 HB2        11.3600   59.9700   59.5200 hc       956 PP       0.063200
   8604 HB3        10.9400   60.2400   61.3000 hc       956 PP       0.063200
   8605 C2         11.4100   62.6700   59.9400 c3       957 PP      -0.006100
   8606 C1         11.0800   64.1000   59.7100 c3       957 PP       0.076800
   8607 CB          9.7000   64.6100   60.3900 c3       957 PP      -0.265900
   8608 H21        11.8200   62.5200   60.9400 hc       957 PP       0.001900
   8609 H22        12.1700   62.4700   59.1700 hc       957 PP       0.001900
   8610 H1         10.9800   64.2100   58.6200 hc       957 PP       0.001800
   8611 HB1         9.7900   64.3500   61.4500 hc       957 PP       0.063200
   8612 HB2         9.5900   65.6800   60.2000 hc       957 PP       0.063200
   8613 HB3         8.7900   64.0700   60.0700 hc       957 PP       0.063200
   8614 C2         12.2400   65.1000   60.1200 c3       958 PP      -0.006100
   8615 C1         13.4800   65.3500   59.1900 c3       958 PP       0.076800
   8616 CB         13.2700   66.7000   58.4900 c3       958 PP      -0.265900
   8617 H21        11.7600   66.0900   60.2300 hc       958 PP       0.001900
   8618 H22        12.5500   64.8500   61.1400 hc       958 PP       0.001900
   8619 H1         13.3700   64.6500   58.3600 hc       958 PP       0.001800
   8620 HB1        13.5300   67.5000   59.1900 hc       958 PP       0.063200
   8621 HB2        13.8800   66.8200   57.5800 hc       958 PP       0.063200
   8622 HB3        12.2200   66.7800   58.2000 hc       958 PP       0.063200
   8623 C2         14.9300   65.1400   59.8400 c3       959 PP      -0.006100
   8624 C1         16.1200   65.0900   58.8600 c3       959 PP       0.076800
   8625 CB         16.6500   66.4500   58.4600 c3       959 PP      -0.265900
   8626 H21        15.0700   65.9200   60.6000 hc       959 PP       0.001900
   8627 H22        14.8900   64.1500   60.3000 hc       959 PP       0.001900
   8628 H1         15.8300   64.6400   57.9000 hc       959 PP       0.001800
   8629 HB1        17.0600   66.9500   59.3500 hc       959 PP       0.063200
   8630 HB2        17.5000   66.4600   57.7700 hc       959 PP       0.063200
   8631 HB3        15.9100   67.2000   58.1600 hc       959 PP       0.063200
   8632 C2         17.3300   64.2400   59.4500 c3       960 PP      -0.006100
   8633 C1         18.4300   63.7800   58.4400 c3       960 PP       0.076800
   8634 CB         19.2300   62.5700   58.8900 c3       960 PP      -0.265900
   8635 H21        17.0200   63.3000   59.9200 hc       960 PP       0.001900
   8636 H22        17.7600   64.8700   60.2400 hc       960 PP       0.001900
   8637 H1         19.1400   64.6100   58.3100 hc       960 PP       0.001800
   8638 HB1        18.6900   61.8400   59.5000 hc       960 PP       0.063200
   8639 HB2        19.5700   61.9100   58.0800 hc       960 PP       0.063200
   8640 HB3        20.1300   62.8600   59.4400 hc       960 PP       0.063200
   8641 C2         43.8800   65.4200   53.8100 c3       961 PP      -0.006100
   8642 C1         44.5800   64.7500   52.6200 c3       961 PP       0.076800
   8643 CB         45.7900   64.0400   53.1200 c3       961 PP      -0.265900
   8644 H21        43.0000   65.9800   53.4600 hc       961 PP       0.001900
   8645 H22        44.6900   66.0800   54.1500 hc       961 PP       0.001900
   8646 H1         44.8700   65.4700   51.8400 hc       961 PP       0.001800
   8647 HB1        46.3400   63.7900   52.2100 hc       961 PP       0.063200
   8648 HB2        46.4600   64.7000   53.6900 hc       961 PP       0.063200
   8649 HB3        45.6300   63.1000   53.6500 hc       961 PP       0.063200
   8650 C2         43.8600   63.6300   51.8800 c3       962 PP      -0.006100
   8651 C1         42.4800   63.9000   51.2600 c3       962 PP       0.076800
   8652 CB         42.3400   65.2100   50.4400 c3       962 PP      -0.265900
   8653 H21        44.5000   63.2900   51.0500 hc       962 PP       0.001900
   8654 H22        43.7400   62.8000   52.5900 hc       962 PP       0.001900
   8655 H1         41.8300   64.1500   52.1100 hc       962 PP       0.001800
   8656 HB1        42.4300   66.1000   51.0800 hc       962 PP       0.063200
   8657 HB2        43.0400   65.2500   49.5900 hc       962 PP       0.063200
   8658 HB3        41.3400   65.1900   50.0000 hc       962 PP       0.063200
   8659 C2         41.9600   62.6700   50.4600 c3       963 PP      -0.006100
   8660 C1         41.0500   61.7200   51.2900 c3       963 PP       0.076800
   8661 CB         39.7000   62.2900   51.7500 c3       963 PP      -0.265900
   8662 H21        41.4700   62.9700   49.5300 hc       963 PP       0.001900
   8663 H22        42.8200   62.1100   50.0700 hc       963 PP       0.001900
   8664 H1         41.5500   61.6300   52.2700 hc       963 PP       0.001800
   8665 HB1        39.1100   62.5300   50.8600 hc       963 PP       0.063200
   8666 HB2        39.1300   61.6300   52.4100 hc       963 PP       0.063200
   8667 HB3        39.9400   63.1700   52.3600 hc       963 PP       0.063200
   8668 C2         40.9200   60.3400   50.5300 c3       964 PP      -0.006100
   8669 C1         41.2100   59.1000   51.2700 c3       964 PP       0.076800
   8670 CB         40.4100   58.8400   52.5400 c3       964 PP      -0.265900
   8671 H21        39.9000   60.2900   50.1400 hc       964 PP       0.001900
   8672 H22        41.5500   60.4000   49.6300 hc       964 PP       0.001900
   8673 H1         42.2400   59.1500   51.6400 hc       964 PP       0.001800
   8674 HB1        40.3400   59.7100   53.2100 hc       964 PP       0.063200
   8675 HB2        39.4000   58.5100   52.2800 hc       964 PP       0.063200
   8676 HB3        40.8300   57.9700   53.0600 hc       964 PP       0.063200
   8677 C2         41.0300   57.8200   50.3200 c3       965 PP      -0.006100
   8678 C1         41.7500   56.5500   50.9200 c3       965 PP       0.076800
   8679 CB         41.6700   55.4100   49.8200 c3       965 PP      -0.265900
   8680 H21        39.9900   57.5800   50.0700 hc       965 PP       0.001900
   8681 H22        41.4000   58.1200   49.3300 hc       965 PP       0.001900
   8682 H1         41.1800   56.2000   51.8000 hc       965 PP       0.001800
   8683 HB1        40.6800   55.4400   49.3400 hc       965 PP       0.063200
   8684 HB2        42.4400   55.3900   49.0400 hc       965 PP       0.063200
   8685 HB3        41.7700   54.3800   50.2000 hc       965 PP       0.063200
   8686 C2         43.2800   56.8400   51.2000 c3       966 PP      -0.006100
   8687 C1         43.7500   56.4800   52.6000 c3       966 PP       0.076800
   8688 CB         43.6800   55.0000   53.0500 c3       966 PP      -0.265900
   8689 H21        43.8800   56.3000   50.4600 hc       966 PP       0.001900
   8690 H22        43.5400   57.8800   50.9600 hc       966 PP       0.001900
   8691 H1         43.2700   57.0800   53.3900 hc       966 PP       0.001800
   8692 HB1        43.9400   54.4200   52.1500 hc       966 PP       0.063200
   8693 HB2        44.3200   54.7200   53.8900 hc       966 PP       0.063200
   8694 HB3        42.6400   54.6900   53.2100 hc       966 PP       0.063200
   8695 C2         45.1800   56.9400   52.8100 c3       967 PP      -0.006100
   8696 C1         45.3000   58.4600   53.1500 c3       967 PP       0.076800
   8697 CB         45.0000   58.6900   54.6800 c3       967 PP      -0.265900
   8698 H21        45.6500   56.3400   53.6000 hc       967 PP       0.001900
   8699 H22        45.7200   56.6400   51.9100 hc       967 PP       0.001900
   8700 H1         44.4900   58.9600   52.6100 hc       967 PP       0.001800
   8701 HB1        44.3900   59.5700   54.9100 hc       967 PP       0.063200
   8702 HB2        44.4800   57.7800   55.0100 hc       967 PP       0.063200
   8703 HB3        45.9800   58.7800   55.1800 hc       967 PP       0.063200
   8704 C2         46.5400   59.1100   52.5900 c3       968 PP      -0.006100
   8705 C1         46.5200   59.3900   51.1100 c3       968 PP       0.076800
   8706 CB         45.3700   60.4200   50.6900 c3       968 PP      -0.265900
   8707 H21        46.6600   60.0700   53.1100 hc       968 PP       0.001900
   8708 H22        47.3700   58.5400   53.0100 hc       968 PP       0.001900
   8709 H1         46.2400   58.4200   50.6700 hc       968 PP       0.001800
   8710 HB1        45.7200   61.4300   50.9100 hc       968 PP       0.063200
   8711 HB2        45.1800   60.3100   49.6100 hc       968 PP       0.063200
   8712 HB3        44.3600   60.2900   51.1100 hc       968 PP       0.063200
   8713 C2         47.9100   59.8300   50.5900 c3       969 PP      -0.006100
   8714 C1         48.8900   58.7300   50.5400 c3       969 PP       0.076800
   8715 CB         48.4100   57.5700   49.6200 c3       969 PP      -0.265900
   8716 H21        47.8300   60.3100   49.6000 hc       969 PP       0.001900
   8717 H22        48.2500   60.7000   51.1600 hc       969 PP       0.001900
   8718 H1         49.0400   58.5000   51.6000 hc       969 PP       0.001800
   8719 HB1        47.7700   57.8600   48.7800 hc       969 PP       0.063200
   8720 HB2        49.2700   57.0200   49.2100 hc       969 PP       0.063200
   8721 HB3        47.8400   56.7900   50.1500 hc       969 PP       0.063200
   8722 C2         50.3300   59.1600   50.1100 c3       970 PP      -0.006100
   8723 C1         51.4300   59.3800   51.2500 c3       970 PP       0.076800
   8724 CB         50.9600   60.1000   52.5300 c3       970 PP      -0.265900
   8725 H21        50.8600   58.5200   49.4000 hc       970 PP       0.001900
   8726 H22        50.3800   60.1000   49.5400 hc       970 PP       0.001900
   8727 H1         52.2300   59.9900   50.8000 hc       970 PP       0.001800
   8728 HB1        51.8600   60.1100   53.1600 hc       970 PP       0.063200
   8729 HB2        50.8100   61.1500   52.2600 hc       970 PP       0.063200
   8730 HB3        50.0900   59.6900   53.0700 hc       970 PP       0.063200
   8731 C2         52.0600   57.9700   51.6500 c3       971 PP      -0.006100
   8732 C1         52.7900   57.1500   50.6400 c3       971 PP       0.076800
   8733 CB         54.0300   57.9400   50.0500 c3       971 PP      -0.265900
   8734 H21        52.6700   58.0300   52.5600 hc       971 PP       0.001900
   8735 H22        51.2100   57.3500   51.9500 hc       971 PP       0.001900
   8736 H1         52.1300   56.8900   49.8100 hc       971 PP       0.001800
   8737 HB1        54.2300   57.4000   49.1100 hc       971 PP       0.063200
   8738 HB2        53.8800   59.0100   49.8900 hc       971 PP       0.063200
   8739 HB3        54.9200   57.8600   50.6800 hc       971 PP       0.063200
   8740 C2         53.2600   55.8000   51.2700 c3       972 PP      -0.006100
   8741 C1         52.0700   54.7100   51.3600 c3       972 PP       0.076800
   8742 CB         51.8100   53.9100   50.0600 c3       972 PP      -0.265900
   8743 H21        54.0700   55.4000   50.6400 hc       972 PP       0.001900
   8744 H22        53.6500   56.0200   52.2700 hc       972 PP       0.001900
   8745 H1         51.1200   55.2500   51.4600 hc       972 PP       0.001800
   8746 HB1        52.0300   54.6000   49.2500 hc       972 PP       0.063200
   8747 HB2        52.6000   53.2000   49.8100 hc       972 PP       0.063200
   8748 HB3        50.8100   53.4500   50.1000 hc       972 PP       0.063200
   8749 C2         52.1400   53.7900   52.5800 c3       973 PP      -0.006100
   8750 C1         50.8400   52.9400   52.9600 c3       973 PP       0.076800
   8751 CB         51.0900   51.8700   53.9900 c3       973 PP      -0.265900
   8752 H21        52.9800   53.0700   52.5800 hc       973 PP       0.001900
   8753 H22        52.4300   54.4500   53.4100 hc       973 PP       0.001900
   8754 H1         50.5900   52.4600   52.0100 hc       973 PP       0.001800
   8755 HB1        50.1800   51.2500   54.0200 hc       973 PP       0.063200
   8756 HB2        51.9400   51.2100   53.7700 hc       973 PP       0.063200
   8757 HB3        51.2100   52.3000   54.9900 hc       973 PP       0.063200
   8758 C2         49.5700   53.7400   53.4200 c3       974 PP      -0.006100
   8759 C1         48.2100   53.1900   53.0200 c3       974 PP       0.076800
   8760 CB         47.1300   53.7800   53.8700 c3       974 PP      -0.265900
   8761 H21        49.5700   53.7200   54.5100 hc       974 PP       0.001900
   8762 H22        49.6700   54.7800   53.0800 hc       974 PP       0.001900
   8763 H1         48.1100   52.1300   53.2700 hc       974 PP       0.001800
   8764 HB1        47.3500   54.8300   54.1000 hc       974 PP       0.063200
   8765 HB2        46.1700   53.6500   53.3600 hc       974 PP       0.063200
   8766 HB3        47.0300   53.2800   54.8400 hc       974 PP       0.063200
   8767 C2         47.8500   53.3500   51.4400 c3       975 PP      -0.006100
   8768 C1         46.5600   52.6100   50.9400 c3       975 PP       0.076800
   8769 CB         45.8400   53.4700   49.9400 c3       975 PP      -0.265900
   8770 H21        47.8200   54.4300   51.2500 hc       975 PP       0.001900
   8771 H22        48.7500   52.9300   50.9800 hc       975 PP       0.001900
   8772 H1         46.0000   52.2900   51.8300 hc       975 PP       0.001800
   8773 HB1        45.5300   54.4700   50.2700 hc       975 PP       0.063200
   8774 HB2        46.4500   53.7300   49.0700 hc       975 PP       0.063200
   8775 HB3        44.9600   53.0000   49.4800 hc       975 PP       0.063200
   8776 C2         47.0000   51.3400   50.1700 c3       976 PP      -0.006100
   8777 C1         47.6800   50.2400   51.0300 c3       976 PP       0.076800
   8778 CB         46.4800   49.5900   51.7400 c3       976 PP      -0.265900
   8779 H21        46.1300   50.9200   49.6400 hc       976 PP       0.001900
   8780 H22        47.7100   51.6500   49.3900 hc       976 PP       0.001900
   8781 H1         48.4100   50.5900   51.7600 hc       976 PP       0.001800
   8782 HB1        45.6200   49.5300   51.0700 hc       976 PP       0.063200
   8783 HB2        46.8600   48.6000   52.0500 hc       976 PP       0.063200
   8784 HB3        46.2600   50.0800   52.7000 hc       976 PP       0.063200
   8785 C2         48.3600   49.1000   50.1700 c3       977 PP      -0.006100
   8786 C1         49.7300   48.6100   50.7800 c3       977 PP       0.076800
   8787 CB         50.8400   49.7100   50.8800 c3       977 PP      -0.265900
   8788 H21        47.7700   48.1800   50.0900 hc       977 PP       0.001900
   8789 H22        48.4700   49.4100   49.1200 hc       977 PP       0.001900
   8790 H1         50.1700   47.9200   50.0500 hc       977 PP       0.001800
   8791 HB1        50.5900   50.1400   51.8600 hc       977 PP       0.063200
   8792 HB2        51.8600   49.3200   50.9600 hc       977 PP       0.063200
   8793 HB3        50.7100   50.4500   50.0800 hc       977 PP       0.063200
   8794 C2         49.6000   47.8900   52.1400 c3       978 PP      -0.006100
   8795 C1         50.7200   46.8400   52.5400 c3       978 PP       0.076800
   8796 CB         51.0500   47.0400   54.0100 c3       978 PP      -0.265900
   8797 H21        49.4500   48.5900   52.9600 hc       978 PP       0.001900
   8798 H22        48.6700   47.3000   52.2100 hc       978 PP       0.001900
   8799 H1         51.6100   47.1500   51.9700 hc       978 PP       0.001800
   8800 HB1        50.2000   46.8500   54.6800 hc       978 PP       0.063200
   8801 HB2        51.9600   46.4800   54.2700 hc       978 PP       0.063200
   8802 HB3        51.3800   48.0700   54.1800 hc       978 PP       0.063200
   8803 C2         50.3900   45.3800   52.1400 c3       979 PP      -0.006100
   8804 C1         50.1800   45.0000   50.6000 c3       979 PP       0.076800
   8805 CB         51.6300   44.8500   49.9300 c3       979 PP      -0.265900
   8806 H21        51.2000   44.8300   52.6200 hc       979 PP       0.001900
   8807 H22        49.4800   44.9900   52.6300 hc       979 PP       0.001900
   8808 H1         49.8200   45.8200   49.9700 hc       979 PP       0.001800
   8809 HB1        51.6500   44.9300   48.8400 hc       979 PP       0.063200
   8810 HB2        52.4200   45.5700   50.1700 hc       979 PP       0.063200
   8811 HB3        51.9600   43.8300   50.1600 hc       979 PP       0.063200
   8812 C2         49.2100   43.7100   50.3800 c3       980 PP      -0.006100
   8813 C1         47.7800   43.8400   50.9600 c3       980 PP       0.076800
   8814 CB         47.1000   45.0900   50.4300 c3       980 PP      -0.265900
   8815 H21        49.1700   43.5500   49.2900 hc       980 PP       0.001900
   8816 H22        49.6800   42.7900   50.7700 hc       980 PP       0.001900
   8817 H1         47.8100   43.9500   52.0500 hc       980 PP       0.001800
   8818 HB1        46.0300   45.1900   50.6300 hc       980 PP       0.063200
   8819 HB2        47.6400   45.9900   50.7400 hc       980 PP       0.063200
   8820 HB3        47.1200   45.0800   49.3400 hc       980 PP       0.063200
   8821 C2         46.9100   42.6100   50.6500 c3       981 PP      -0.006100
   8822 C1         47.3600   41.2300   51.2100 c3       981 PP       0.076800
   8823 CB         47.5700   41.1400   52.7300 c3       981 PP      -0.265900
   8824 H21        45.9400   42.8300   51.1300 hc       981 PP       0.001900
   8825 H22        46.5600   42.5400   49.6100 hc       981 PP       0.001900
   8826 H1         48.3200   41.0300   50.7200 hc       981 PP       0.001800
   8827 HB1        46.6900   41.4500   53.3100 hc       981 PP       0.063200
   8828 HB2        47.7400   40.0900   52.9800 hc       981 PP       0.063200
   8829 HB3        48.3900   41.7200   53.1800 hc       981 PP       0.063200
   8830 C2         46.4000   40.1300   50.6900 c3       982 PP      -0.006100
   8831 C1         46.7300   38.6000   50.9600 c3       982 PP       0.076800
   8832 CB         45.8200   37.6500   50.1200 c3       982 PP      -0.265900
   8833 H21        45.4100   40.3600   51.0800 hc       982 PP       0.001900
   8834 H22        46.3300   40.2400   49.6000 hc       982 PP       0.001900
   8835 H1         46.5800   38.3600   52.0200 hc       982 PP       0.001800
   8836 HB1        45.9700   37.6300   49.0300 hc       982 PP       0.063200
   8837 HB2        45.9200   36.6300   50.5000 hc       982 PP       0.063200
   8838 HB3        44.8000   38.0000   50.3100 hc       982 PP       0.063200
   8839 C2         48.2300   38.3000   50.6200 c3       983 PP      -0.006100
   8840 C1         48.8700   37.0400   51.2000 c3       983 PP       0.076800
   8841 CB         48.5100   36.5900   52.6500 c3       983 PP      -0.265900
   8842 H21        48.5800   38.4000   49.5900 hc       983 PP       0.001900
   8843 H22        48.8400   39.0800   51.1000 hc       983 PP       0.001900
   8844 H1         49.9300   37.3100   51.3300 hc       983 PP       0.001800
   8845 HB1        47.4900   36.1600   52.6600 hc       983 PP       0.063200
   8846 HB2        49.2000   35.8100   53.0100 hc       983 PP       0.063200
   8847 HB3        48.5400   37.4600   53.3100 hc       983 PP       0.063200
   8848 C2         48.7200   35.8100   50.3500 c3       984 PP      -0.006100
   8849 C1         49.8000   34.7000   50.5400 c3       984 PP       0.076800
   8850 CB         49.2900   33.4600   49.7900 c3       984 PP      -0.265900
   8851 H21        47.7700   35.3600   50.6500 hc       984 PP       0.001900
   8852 H22        48.6900   36.0600   49.2800 hc       984 PP       0.001900
   8853 H1         49.9400   34.4100   51.5900 hc       984 PP       0.001800
   8854 HB1        50.1400   32.7900   49.6200 hc       984 PP       0.063200
   8855 HB2        48.4600   33.0400   50.3700 hc       984 PP       0.063200
   8856 HB3        48.8000   33.7300   48.8400 hc       984 PP       0.063200
   8857 C2         51.1700   35.2000   49.9900 c3       985 PP      -0.006100
   8858 C1         52.4200   34.8700   50.9000 c3       985 PP       0.076800
   8859 CB         52.3600   35.6100   52.3000 c3       985 PP      -0.265900
   8860 H21        51.2900   34.7500   48.9900 hc       985 PP       0.001900
   8861 H22        51.1800   36.2700   49.7500 hc       985 PP       0.001900
   8862 H1         53.2700   35.4000   50.4600 hc       985 PP       0.001800
   8863 HB1        51.5600   35.2100   52.9300 hc       985 PP       0.063200
   8864 HB2        53.1900   35.4000   52.9900 hc       985 PP       0.063200
   8865 HB3        52.2700   36.6700   52.0500 hc       985 PP       0.063200
   8866 C2         52.7200   33.3600   50.9100 c3       986 PP      -0.006100
   8867 C1         54.0700   32.8500   51.4900 c3       986 PP       0.076800
   8868 CB         53.9600   31.3100   51.8400 c3       986 PP      -0.265900
   8869 H21        51.9100   32.9900   51.5500 hc       986 PP       0.001900
   8870 H22        52.5600   32.9700   49.9000 hc       986 PP       0.001900
   8871 H1         54.2900   33.4400   52.3900 hc       986 PP       0.001800
   8872 HB1        54.8400   30.9700   52.4100 hc       986 PP       0.063200
   8873 HB2        53.2100   31.1200   52.6200 hc       986 PP       0.063200
   8874 HB3        53.9500   30.6400   50.9800 hc       986 PP       0.063200
   8875 C2         55.1200   33.0900   50.4600 c3       987 PP      -0.006100
   8876 C1         56.6700   32.8200   50.8300 c3       987 PP       0.076800
   8877 CB         57.0800   31.3600   50.5800 c3       987 PP      -0.265900
   8878 H21        54.7300   32.6100   49.5600 hc       987 PP       0.001900
   8879 H22        55.0300   34.1600   50.2200 hc       987 PP       0.001900
   8880 H1         56.8400   33.1000   51.8700 hc       987 PP       0.001800
   8881 HB1        57.1600   31.1300   49.5100 hc       987 PP       0.063200
   8882 HB2        58.0200   31.2500   51.1300 hc       987 PP       0.063200
   8883 HB3        56.5000   30.6100   51.1400 hc       987 PP       0.063200
   8884 C2         57.5800   33.8400   50.0300 c3       988 PP      -0.006100
   8885 C1         58.6300   34.4800   50.9400 c3       988 PP       0.076800
   8886 CB         59.6500   35.3100   50.0300 c3       988 PP      -0.265900
   8887 H21        58.1100   33.3200   49.2300 hc       988 PP       0.001900
   8888 H22        56.9000   34.5900   49.6100 hc       988 PP       0.001900
   8889 H1         59.2100   33.7200   51.4700 hc       988 PP       0.001800
   8890 HB1        60.5000   35.6500   50.6200 hc       988 PP       0.063200
   8891 HB2        59.9900   34.5900   49.2700 hc       988 PP       0.063200
   8892 HB3        59.1300   36.1000   49.4800 hc       988 PP       0.063200
   8893 C2         57.9300   35.4700   51.9200 c3       989 PP      -0.006100
   8894 C1         58.3500   35.2000   53.4100 c3       989 PP       0.076800
   8895 CB         59.8400   35.5600   53.6100 c3       989 PP      -0.265900
   8896 H21        58.2400   36.5000   51.7200 hc       989 PP       0.001900
   8897 H22        56.8400   35.4500   51.8500 hc       989 PP       0.001900
   8898 H1         58.2700   34.1300   53.6700 hc       989 PP       0.001800
   8899 HB1        60.2800   35.4200   54.6000 hc       989 PP       0.063200
   8900 HB2        60.4300   35.0200   52.8600 hc       989 PP       0.063200
   8901 HB3        59.9900   36.6200   53.3700 hc       989 PP       0.063200
   8902 C2         57.4500   35.9900   54.3800 c3       990 PP      -0.006100
   8903 C1         56.0700   35.3300   54.5000 c3       990 PP       0.076800
   8904 CB         54.9800   36.3700   54.7300 c3       990 PP      -0.265900
   8905 H21        57.5300   37.0500   54.1100 hc       990 PP       0.001900
   8906 H22        57.8900   35.9600   55.3900 hc       990 PP       0.001900
   8907 H1         56.0400   34.5500   55.2700 hc       990 PP       0.001800
   8908 HB1        54.7300   36.8800   53.7900 hc       990 PP       0.063200
   8909 HB2        54.1800   35.8400   55.2700 hc       990 PP       0.063200
   8910 HB3        55.2300   37.1500   55.4600 hc       990 PP       0.063200
   8911 C2         35.1200   78.1200   64.1100 c3       991 PP      -0.006100
   8912 C1         35.0500   79.2000   65.1600 c3       991 PP       0.076800
   8913 CB         34.6500   78.6100   66.5500 c3       991 PP      -0.265900
   8914 H21        34.1600   77.6000   63.9600 hc       991 PP       0.001900
   8915 H22        35.9500   77.4600   64.3600 hc       991 PP       0.001900
   8916 H1         34.1800   79.8200   64.9000 hc       991 PP       0.001800
   8917 HB1        35.5200   78.2100   67.0900 hc       991 PP       0.063200
   8918 HB2        34.1400   79.4000   67.1300 hc       991 PP       0.063200
   8919 HB3        33.9900   77.7500   66.4100 hc       991 PP       0.063200
   8920 C2         36.3400    0.0900   65.2000 c3       992 PP      -0.006100
   8921 C1         36.7300    0.6800   63.8200 c3       992 PP       0.076800
   8922 CB         35.5800    1.4500   63.1000 c3       992 PP      -0.265900
   8923 H21        36.1100    0.9100   65.8800 hc       992 PP       0.001900
   8924 H22        37.1100   -0.5900   65.5800 hc       992 PP       0.001900
   8925 H1         36.9500   -0.2100   63.2100 hc       992 PP       0.001800
   8926 HB1        34.5800    1.0100   63.1100 hc       992 PP       0.063200
   8927 HB2        35.4500    2.4200   63.5800 hc       992 PP       0.063200
   8928 HB3        36.0400    1.6800   62.1200 hc       992 PP       0.063200
   8929 C2         37.9900    1.5500   63.7700 c3       993 PP      -0.006100
   8930 C1         39.1400    1.0200   64.7000 c3       993 PP       0.076800
   8931 CB         39.6600   -0.3300   64.1900 c3       993 PP      -0.265900
   8932 H21        38.3800    1.6300   62.7500 hc       993 PP       0.001900
   8933 H22        37.7300    2.5900   63.9900 hc       993 PP       0.001900
   8934 H1         38.7500    0.9000   65.7200 hc       993 PP       0.001800
   8935 HB1        40.3000   -0.9600   64.8200 hc       993 PP       0.063200
   8936 HB2        38.8100   -0.9800   63.9600 hc       993 PP       0.063200
   8937 HB3        40.1900    0.0100   63.2900 hc       993 PP       0.063200
   8938 C2         40.2200    2.1000   64.8200 c3       994 PP      -0.006100
   8939 C1         39.8100    3.3200   65.6600 c3       994 PP       0.076800
   8940 CB         39.8300    3.0100   67.1400 c3       994 PP      -0.265900
   8941 H21        41.1700    1.6600   65.1300 hc       994 PP       0.001900
   8942 H22        40.3800    2.4400   63.7900 hc       994 PP       0.001900
   8943 H1         38.8500    3.7400   65.3300 hc       994 PP       0.001800
   8944 HB1        39.5800    3.8900   67.7300 hc       994 PP       0.063200
   8945 HB2        39.0500    2.2800   67.4100 hc       994 PP       0.063200
   8946 HB3        40.8300    2.7400   67.5000 hc       994 PP       0.063200
   8947 C2         40.8400    4.4900   65.4400 c3       995 PP      -0.006100
   8948 C1         40.9000    5.2100   64.0200 c3       995 PP       0.076800
   8949 CB         39.5500    5.9000   63.7900 c3       995 PP      -0.265900
   8950 H21        40.9200    5.2100   66.2600 hc       995 PP       0.001900
   8951 H22        41.8000    3.9600   65.4400 hc       995 PP       0.001900
   8952 H1         41.1000    4.4500   63.2500 hc       995 PP       0.001800
   8953 HB1        39.5800    6.3300   62.7800 hc       995 PP       0.063200
   8954 HB2        38.8200    5.0900   63.8100 hc       995 PP       0.063200
   8955 HB3        39.2400    6.7000   64.4700 hc       995 PP       0.063200
   8956 C2         42.0100    6.3800   64.0000 c3       996 PP      -0.006100
   8957 C1         43.4700    5.8900   64.1000 c3       996 PP       0.076800
   8958 CB         43.8300    4.9400   62.9500 c3       996 PP      -0.265900
   8959 H21        41.9500    7.0300   63.1200 hc       996 PP       0.001900
   8960 H22        41.7400    6.9100   64.9200 hc       996 PP       0.001900
   8961 H1         43.5500    5.3100   65.0300 hc       996 PP       0.001800
   8962 HB1        44.9000    4.7200   62.8200 hc       996 PP       0.063200
   8963 HB2        43.3600    3.9700   63.1600 hc       996 PP       0.063200
   8964 HB3        43.4800    5.2700   61.9600 hc       996 PP       0.063200
   8965 C2         44.5000    7.0900   64.1300 c3       997 PP      -0.006100
   8966 C1         44.3100    8.1400   65.3300 c3       997 PP       0.076800
   8967 CB         43.9300    7.6200   66.7500 c3       997 PP      -0.265900
   8968 H21        45.5000    6.6400   64.0900 hc       997 PP       0.001900
   8969 H22        44.4700    7.5900   63.1500 hc       997 PP       0.001900
   8970 H1         43.4700    8.7400   64.9600 hc       997 PP       0.001800
   8971 HB1        44.7900    7.2400   67.3100 hc       997 PP       0.063200
   8972 HB2        43.4300    8.4000   67.3400 hc       997 PP       0.063200
   8973 HB3        43.1600    6.8500   66.6600 hc       997 PP       0.063200
   8974 C2         45.5900    9.0300   65.4600 c3       998 PP      -0.006100
   8975 C1         45.4800   10.3700   66.2500 c3       998 PP       0.076800
   8976 CB         46.9200   10.8400   66.6500 c3       998 PP      -0.265900
   8977 H21        46.2800    8.3400   65.9600 hc       998 PP       0.001900
   8978 H22        46.0000    9.1100   64.4500 hc       998 PP       0.001900
   8979 H1         44.8100   10.2900   67.1100 hc       998 PP       0.001800
   8980 HB1        47.4900   10.9500   65.7200 hc       998 PP       0.063200
   8981 HB2        46.9300   11.7900   67.1800 hc       998 PP       0.063200
   8982 HB3        47.4200   10.1300   67.3200 hc       998 PP       0.063200
   8983 C2         44.8200   11.4700   65.2500 c3       999 PP      -0.006100
   8984 C1         43.3100   11.7900   65.3700 c3       999 PP       0.076800
   8985 CB         42.9400   12.2900   66.7900 c3       999 PP      -0.265900
   8986 H21        45.3200   12.4500   65.3200 hc       999 PP       0.001900
   8987 H22        45.0000   11.1300   64.2300 hc       999 PP       0.001900
   8988 H1         42.7700   10.8400   65.2800 hc       999 PP       0.001800
   8989 HB1        43.1000   11.5500   67.5900 hc       999 PP       0.063200
   8990 HB2        43.4000   13.2700   66.9900 hc       999 PP       0.063200
   8991 HB3        41.8700   12.5100   66.7300 hc       999 PP       0.063200
   8992 C2         42.8800   12.8300   64.3300 c3      1000 PP      -0.006100
   8993 C1         43.2300   12.4700   62.8700 c3      1000 PP       0.076800
   8994 CB         42.8400   11.0100   62.4800 c3      1000 PP      -0.265900
   8995 H21        41.7900   12.9600   64.3900 hc      1000 PP       0.001900
   8996 H22        43.4400   13.7200   64.6300 hc      1000 PP       0.001900
   8997 H1         44.3200   12.6300   62.7900 hc      1000 PP       0.001800
   8998 HB1        41.7600   10.8000   62.4400 hc      1000 PP       0.063200
   8999 HB2        43.2600   10.8400   61.4800 hc      1000 PP       0.063200
   9000 HB3        43.2300   10.2000   63.1100 hc      1000 PP       0.063200
   9001 C2         42.4300   13.4200   61.9400 c3      1001 PP      -0.006100
   9002 C1         42.8200   14.9300   61.9400 c3      1001 PP       0.076800
   9003 CB         43.3100   15.3600   60.5400 c3      1001 PP      -0.265900
   9004 H21        42.4700   13.0300   60.9200 hc      1001 PP       0.001900
   9005 H22        41.3700   13.2900   62.2000 hc      1001 PP       0.001900
   9006 H1         43.6800   15.0900   62.6000 hc      1001 PP       0.001800
   9007 HB1        44.2900   14.9600   60.2400 hc      1001 PP       0.063200
   9008 HB2        42.6700   15.0600   59.7000 hc      1001 PP       0.063200
   9009 HB3        43.4900   16.4400   60.4700 hc      1001 PP       0.063200
   9010 C2         41.6900   15.8800   62.5300 c3      1002 PP      -0.006100
   9011 C1         42.1800   17.2400   63.0700 c3      1002 PP       0.076800
   9012 CB         41.0800   18.2200   63.3000 c3      1002 PP      -0.265900
   9013 H21        41.0000   16.0500   61.6900 hc      1002 PP       0.001900
   9014 H22        41.1900   15.3900   63.3700 hc      1002 PP       0.001900
   9015 H1         42.7700   17.6400   62.2300 hc      1002 PP       0.001800
   9016 HB1        40.2400   17.8300   63.8900 hc      1002 PP       0.063200
   9017 HB2        41.4900   19.1000   63.8200 hc      1002 PP       0.063200
   9018 HB3        40.7700   18.6300   62.3400 hc      1002 PP       0.063200
   9019 C2         43.1600   17.1600   64.3400 c3      1003 PP      -0.006100
   9020 C1         42.7200   16.3800   65.6100 c3      1003 PP       0.076800
   9021 CB         43.8900   16.0600   66.5000 c3      1003 PP      -0.265900
   9022 H21        44.1100   16.7300   63.9900 hc      1003 PP       0.001900
   9023 H22        43.4800   18.1600   64.6400 hc      1003 PP       0.001900
   9024 H1         42.2400   15.4200   65.3600 hc      1003 PP       0.001800
   9025 HB1        43.5800   15.5700   67.4300 hc      1003 PP       0.063200
   9026 HB2        44.7500   15.5200   66.0800 hc      1003 PP       0.063200
   9027 HB3        44.2900   16.9800   66.9400 hc      1003 PP       0.063200
   9028 C2         41.6000   17.1100   66.4600 c3      1004 PP      -0.006100
   9029 C1         40.2100   16.4700   66.2700 c3      1004 PP       0.076800
   9030 CB         40.0500   15.1400   67.0700 c3      1004 PP      -0.265900
   9031 H21        41.8300   17.1900   67.5300 hc      1004 PP       0.001900
   9032 H22        41.5800   18.1600   66.1400 hc      1004 PP       0.001900
   9033 H1         40.0800   16.2900   65.2000 hc      1004 PP       0.001800
   9034 HB1        40.0700   15.3300   68.1500 hc      1004 PP       0.063200
   9035 HB2        39.0600   14.7300   66.8300 hc      1004 PP       0.063200
   9036 HB3        40.8200   14.4000   66.8100 hc      1004 PP       0.063200
   9037 C2         39.0900   17.5600   66.6600 c3      1005 PP      -0.006100
   9038 C1         37.5700   17.1000   66.4100 c3      1005 PP       0.076800
   9039 CB         36.6200   18.1300   67.0600 c3      1005 PP      -0.265900
   9040 H21        39.3100   17.7200   67.7200 hc      1005 PP       0.001900
   9041 H22        39.2800   18.4500   66.0500 hc      1005 PP       0.001900
   9042 H1         37.3100   16.1600   66.9200 hc      1005 PP       0.001800
   9043 HB1        36.5600   17.9400   68.1400 hc      1005 PP       0.063200
   9044 HB2        36.9600   19.1600   66.8900 hc      1005 PP       0.063200
   9045 HB3        35.5700   18.1400   66.7400 hc      1005 PP       0.063200
   9046 C2         37.2700   16.8100   64.8800 c3      1006 PP      -0.006100
   9047 C1         35.8400   16.4500   64.3800 c3      1006 PP       0.076800
   9048 CB         36.0000   16.3700   62.8200 c3      1006 PP      -0.265900
   9049 H21        37.6100   17.6800   64.3100 hc      1006 PP       0.001900
   9050 H22        37.9200   16.0000   64.5300 hc      1006 PP       0.001900
   9051 H1         35.1300   17.2600   64.5800 hc      1006 PP       0.001800
   9052 HB1        36.5800   17.2200   62.4600 hc      1006 PP       0.063200
   9053 HB2        36.6000   15.4900   62.5600 hc      1006 PP       0.063200
   9054 HB3        35.0000   16.4400   62.3700 hc      1006 PP       0.063200
   9055 C2         35.5400   15.0500   64.9800 c3      1007 PP      -0.006100
   9056 C1         34.0400   14.7700   65.2000 c3      1007 PP       0.076800
   9057 CB         33.4800   15.3900   66.4900 c3      1007 PP      -0.265900
   9058 H21        35.7800   14.2400   64.2800 hc      1007 PP       0.001900
   9059 H22        36.0200   14.8400   65.9400 hc      1007 PP       0.001900
   9060 H1         33.8600   13.7200   65.4800 hc      1007 PP       0.001800
   9061 HB1        33.3200   16.4600   66.2700 hc      1007 PP       0.063200
   9062 HB2        32.5600   14.9400   66.8600 hc      1007 PP       0.063200
   9063 HB3        34.3100   15.3100   67.2000 hc      1007 PP       0.063200
   9064 C2         33.1100   14.9100   63.9900 c3      1008 PP      -0.006100
   9065 C1         33.3100   13.8900   62.8100 c3      1008 PP       0.076800
   9066 CB         33.2600   12.3900   63.2500 c3      1008 PP      -0.265900
   9067 H21        32.1200   14.8300   64.4500 hc      1008 PP       0.001900
   9068 H22        33.1700   15.9300   63.5900 hc      1008 PP       0.001900
   9069 H1         34.2300   14.1700   62.2900 hc      1008 PP       0.001800
   9070 HB1        34.2000   12.1800   63.7800 hc      1008 PP       0.063200
   9071 HB2        32.3700   12.1900   63.8600 hc      1008 PP       0.063200
   9072 HB3        33.1500   11.7000   62.4000 hc      1008 PP       0.063200
   9073 C2         32.1200   13.9600   61.7700 c3      1009 PP      -0.006100
   9074 C1         32.4300   13.9300   60.2400 c3      1009 PP       0.076800
   9075 CB         33.3100   12.8300   59.7400 c3      1009 PP      -0.265900
   9076 H21        31.3600   13.1900   61.9700 hc      1009 PP       0.001900
   9077 H22        31.6600   14.9400   61.9500 hc      1009 PP       0.001900
   9078 H1         33.0400   14.8100   60.0100 hc      1009 PP       0.001800
   9079 HB1        32.6800   11.9400   59.8400 hc      1009 PP       0.063200
   9080 HB2        33.5000   13.0000   58.6700 hc      1009 PP       0.063200
   9081 HB3        34.2500   12.6500   60.2800 hc      1009 PP       0.063200
   9082 C2         31.1200   14.1400   59.4400 c3      1010 PP      -0.006100
   9083 C1         31.1700   14.1100   57.9800 c3      1010 PP       0.076800
   9084 CB         29.6800   14.2600   57.4800 c3      1010 PP      -0.265900
   9085 H21        30.5500   13.2800   59.8300 hc      1010 PP       0.001900
   9086 H22        30.6400   15.0700   59.7600 hc      1010 PP       0.001900
   9087 H1         31.4100   13.1100   57.5900 hc      1010 PP       0.001800
   9088 HB1        29.6800   14.1100   56.3900 hc      1010 PP       0.063200
   9089 HB2        29.0900   13.3900   57.7900 hc      1010 PP       0.063200
   9090 HB3        29.2000   15.2300   57.7100 hc      1010 PP       0.063200
   9091 C2         32.0600   15.2100   57.3500 c3      1011 PP      -0.006100
   9092 C1         32.0400   15.3700   55.8500 c3      1011 PP       0.076800
   9093 CB         32.8700   16.4600   55.1600 c3      1011 PP      -0.265900
   9094 H21        31.7000   16.1800   57.7200 hc      1011 PP       0.001900
   9095 H22        33.1000   15.0700   57.6800 hc      1011 PP       0.001900
   9096 H1         31.0200   15.6700   55.5800 hc      1011 PP       0.001800
   9097 HB1        33.8900   16.5500   55.5500 hc      1011 PP       0.063200
   9098 HB2        32.8500   16.3100   54.0700 hc      1011 PP       0.063200
   9099 HB3        32.2900   17.3800   55.3000 hc      1011 PP       0.063200
   9100 C2         32.2500   13.9700   55.0800 c3      1012 PP      -0.006100
   9101 C1         33.4900   13.0600   55.3100 c3      1012 PP       0.076800
   9102 CB         33.1200   11.6400   54.8800 c3      1012 PP      -0.265900
   9103 H21        31.3000   13.4700   55.2900 hc      1012 PP       0.001900
   9104 H22        32.1900   14.2100   54.0100 hc      1012 PP       0.001900
   9105 H1         33.6300   13.0700   56.4000 hc      1012 PP       0.001800
   9106 HB1        32.1500   11.2800   55.2200 hc      1012 PP       0.063200
   9107 HB2        33.1900   11.6700   53.7800 hc      1012 PP       0.063200
   9108 HB3        33.8000   10.8400   55.1900 hc      1012 PP       0.063200
   9109 C2         34.8300   13.6200   54.6700 c3      1013 PP      -0.006100
   9110 C1         36.0000   13.3900   55.6900 c3      1013 PP       0.076800
   9111 CB         36.6700   12.0400   55.3700 c3      1013 PP      -0.265900
   9112 H21        34.9100   12.9600   53.8000 hc      1013 PP       0.001900
   9113 H22        34.7100   14.6600   54.3300 hc      1013 PP       0.001900
   9114 H1         35.6200   13.3300   56.7200 hc      1013 PP       0.001800
   9115 HB1        37.3100   11.5800   56.1400 hc      1013 PP       0.063200
   9116 HB2        35.9600   11.2900   55.0000 hc      1013 PP       0.063200
   9117 HB3        37.3200   12.1100   54.4800 hc      1013 PP       0.063200
   9118 C2         36.9600   14.5500   55.6100 c3      1014 PP      -0.006100
   9119 C1         38.2900   14.5600   56.4800 c3      1014 PP       0.076800
   9120 CB         38.9800   16.0200   56.3600 c3      1014 PP      -0.265900
   9121 H21        37.2000   14.5400   54.5400 hc      1014 PP       0.001900
   9122 H22        36.4800   15.5000   55.8700 hc      1014 PP       0.001900
   9123 H1         38.9600   13.7500   56.1500 hc      1014 PP       0.001800
   9124 HB1        39.8300   16.1100   57.0400 hc      1014 PP       0.063200
   9125 HB2        39.3100   16.2700   55.3400 hc      1014 PP       0.063200
   9126 HB3        38.3400   16.8600   56.6700 hc      1014 PP       0.063200
   9127 C2         37.8600   14.4100   57.9700 c3      1015 PP      -0.006100
   9128 C1         39.0900   14.4000   59.1100 c3      1015 PP       0.076800
   9129 CB         38.5600   14.4500   60.5600 c3      1015 PP      -0.265900
   9130 H21        37.2600   15.3300   58.1200 hc      1015 PP       0.001900
   9131 H22        37.2400   13.5400   58.2300 hc      1015 PP       0.001900
   9132 H1         39.7200   15.2900   59.0400 hc      1015 PP       0.001800
   9133 HB1        38.1100   13.4900   60.8500 hc      1015 PP       0.063200
   9134 HB2        39.3400   14.8000   61.2300 hc      1015 PP       0.063200
   9135 HB3        37.8300   15.2700   60.6500 hc      1015 PP       0.063200
   9136 C2         40.0300   13.1900   58.9500 c3      1016 PP      -0.006100
   9137 C1         39.5200   11.6700   58.9400 c3      1016 PP       0.076800
   9138 CB         39.9300   10.9600   57.5800 c3      1016 PP      -0.265900
   9139 H21        40.5400   13.3600   57.9900 hc      1016 PP       0.001900
   9140 H22        40.7300   13.2900   59.7900 hc      1016 PP       0.001900
   9141 H1         38.4300   11.7400   58.8900 hc      1016 PP       0.001800
   9142 HB1        39.6500   11.6000   56.7300 hc      1016 PP       0.063200
   9143 HB2        40.9600   10.5900   57.5700 hc      1016 PP       0.063200
   9144 HB3        39.3800   10.0300   57.4100 hc      1016 PP       0.063200
   9145 C2         39.9900   10.9100   60.2300 c3      1017 PP      -0.006100
   9146 C1         39.1000    9.6400   60.6600 c3      1017 PP       0.076800
   9147 CB         39.6700    8.3100   60.0900 c3      1017 PP      -0.265900
   9148 H21        41.0400   10.6300   60.0900 hc      1017 PP       0.001900
   9149 H22        39.9100   11.6200   61.0600 hc      1017 PP       0.001900
   9150 H1         38.1200    9.7700   60.1800 hc      1017 PP       0.001800
   9151 HB1        39.4800    8.2800   59.0000 hc      1017 PP       0.063200
   9152 HB2        40.7500    8.3300   60.2500 hc      1017 PP       0.063200
   9153 HB3        39.2500    7.4200   60.5800 hc      1017 PP       0.063200
   9154 C2         38.8500    9.5400   62.1800 c3      1018 PP      -0.006100
   9155 C1         37.6000   10.3900   62.5700 c3      1018 PP       0.076800
   9156 CB         36.2400    9.8700   62.1000 c3      1018 PP      -0.265900
   9157 H21        38.7600    8.5400   62.6200 hc      1018 PP       0.001900
   9158 H22        39.7600    9.9100   62.6600 hc      1018 PP       0.001900
   9159 H1         37.7100   11.4100   62.1800 hc      1018 PP       0.001800
   9160 HB1        35.9700    9.0500   62.7700 hc      1018 PP       0.063200
   9161 HB2        35.5600   10.7300   62.0500 hc      1018 PP       0.063200
   9162 HB3        36.2500    9.3900   61.1100 hc      1018 PP       0.063200
   9163 C2         37.6000   10.4300   64.1400 c3      1019 PP      -0.006100
   9164 C1         38.7400   11.3500   64.8300 c3      1019 PP       0.076800
   9165 CB         38.4800   12.8800   64.6600 c3      1019 PP      -0.265900
   9166 H21        36.6800   10.9600   64.4200 hc      1019 PP       0.001900
   9167 H22        37.5500    9.4000   64.5300 hc      1019 PP       0.001900
   9168 H1         39.6500   11.1000   64.2700 hc      1019 PP       0.001800
   9169 HB1        38.2200   13.2800   63.6700 hc      1019 PP       0.063200
   9170 HB2        37.7400   13.2400   65.3900 hc      1019 PP       0.063200
   9171 HB3        39.4000   13.4300   64.8900 hc      1019 PP       0.063200
   9172 C2         38.8900   11.0700   66.3800 c3      1020 PP      -0.006100
   9173 C1         39.1100    9.6300   66.7200 c3      1020 PP       0.076800
   9174 CB         40.6100    9.2500   66.3900 c3      1020 PP      -0.265900
   9175 H21        37.9600   11.3800   66.8800 hc      1020 PP       0.001900
   9176 H22        39.6700   11.6800   66.8600 hc      1020 PP       0.001900
   9177 H1         39.0600    9.6200   67.8200 hc      1020 PP       0.001800
   9178 HB1        41.3700    9.7200   67.0300 hc      1020 PP       0.063200
   9179 HB2        40.6200    8.1800   66.6600 hc      1020 PP       0.063200
   9180 HB3        41.0000    9.4700   65.3900 hc      1020 PP       0.063200
   9181 C2         69.8100   56.3300   54.3700 c3      1021 PP      -0.006100
   9182 C1         69.1100   55.8300   55.6800 c3      1021 PP       0.076800
   9183 CB         67.5800   56.1200   55.6200 c3      1021 PP      -0.265900
   9184 H21        69.3300   55.8700   53.4900 hc      1021 PP       0.001900
   9185 H22        70.8900   56.1300   54.3600 hc      1021 PP       0.001900
   9186 H1         69.5200   56.5100   56.4400 hc      1021 PP       0.001800
   9187 HB1        67.1500   55.4500   54.8700 hc      1021 PP       0.063200
   9188 HB2        67.0400   55.9700   56.5600 hc      1021 PP       0.063200
   9189 HB3        67.3400   57.1100   55.2200 hc      1021 PP       0.063200
   9190 C2         69.4800   54.3900   56.0200 c3      1022 PP      -0.006100
   9191 C1         68.8700   53.9500   57.4000 c3      1022 PP       0.076800
   9192 CB         68.9800   52.3700   57.4300 c3      1022 PP      -0.265900
   9193 H21        69.1000   53.6900   55.2600 hc      1022 PP       0.001900
   9194 H22        70.5700   54.2800   55.9900 hc      1022 PP       0.001900
   9195 H1         67.7900   54.1700   57.4000 hc      1022 PP       0.001800
   9196 HB1        69.9800   52.1000   57.7800 hc      1022 PP       0.063200
   9197 HB2        68.1600   51.9600   58.0300 hc      1022 PP       0.063200
   9198 HB3        68.8400   51.8900   56.4500 hc      1022 PP       0.063200
   9199 C2         69.6100   54.6500   58.6000 c3      1023 PP      -0.006100
   9200 C1         68.8600   54.6100   60.0000 c3      1023 PP       0.076800
   9201 CB         68.5300   53.2000   60.5200 c3      1023 PP      -0.265900
   9202 H21        70.6600   54.3600   58.6900 hc      1023 PP       0.001900
   9203 H22        69.6900   55.7200   58.3900 hc      1023 PP       0.001900
   9204 H1         67.9300   55.1600   59.8500 hc      1023 PP       0.001800
   9205 HB1        68.3700   53.2200   61.6100 hc      1023 PP       0.063200
   9206 HB2        67.6400   52.7000   60.1000 hc      1023 PP       0.063200
   9207 HB3        69.4600   52.6300   60.4200 hc      1023 PP       0.063200
   9208 C2         69.6800   55.4600   60.9900 c3      1024 PP      -0.006100
   9209 C1         69.0700   56.8500   61.3200 c3      1024 PP       0.076800
   9210 CB         67.8500   56.5700   62.2800 c3      1024 PP      -0.265900
   9211 H21        69.8300   54.9100   61.9200 hc      1024 PP       0.001900
   9212 H22        70.6800   55.4700   60.5500 hc      1024 PP       0.001900
   9213 H1         68.7100   57.2200   60.3500 hc      1024 PP       0.001800
   9214 HB1        68.1600   56.4200   63.3200 hc      1024 PP       0.063200
   9215 HB2        67.1500   57.4100   62.2800 hc      1024 PP       0.063200
   9216 HB3        67.3700   55.6400   61.9400 hc      1024 PP       0.063200
   9217 C2         69.8600   57.9400   62.0100 c3      1025 PP      -0.006100
   9218 C1         71.2500   58.2000   61.3900 c3      1025 PP       0.076800
   9219 CB         71.1800   58.6100   59.8700 c3      1025 PP      -0.265900
   9220 H21        69.3000   58.8800   62.0900 hc      1025 PP       0.001900
   9221 H22        70.0800   57.6100   63.0300 hc      1025 PP       0.001900
   9222 H1         71.8900   57.3100   61.4000 hc      1025 PP       0.001800
   9223 HB1        72.2100   58.7600   59.5200 hc      1025 PP       0.063200
   9224 HB2        70.7200   57.8200   59.2700 hc      1025 PP       0.063200
   9225 HB3        70.5800   59.5300   59.8300 hc      1025 PP       0.063200
   9226 C2         72.0800   59.1800   62.2900 c3      1026 PP      -0.006100
   9227 C1         73.5800   59.5300   61.8600 c3      1026 PP       0.076800
   9228 CB         74.1700   60.5300   62.8200 c3      1026 PP      -0.265900
   9229 H21        71.4900   60.1000   62.3900 hc      1026 PP       0.001900
   9230 H22        72.1200   58.7600   63.3000 hc      1026 PP       0.001900
   9231 H1         73.5600   60.0100   60.8800 hc      1026 PP       0.001800
   9232 HB1        75.1500   60.8900   62.4800 hc      1026 PP       0.063200
   9233 HB2        73.5500   61.4300   62.8100 hc      1026 PP       0.063200
   9234 HB3        74.2500   60.1500   63.8500 hc      1026 PP       0.063200
   9235 C2         74.4200   58.2200   61.7100 c3      1027 PP      -0.006100
   9236 C1         75.9500   58.3100   61.5700 c3      1027 PP       0.076800
   9237 CB         76.6400   56.8700   61.6400 c3      1027 PP      -0.265900
   9238 H21        74.3100   57.5900   62.6000 hc      1027 PP       0.001900
   9239 H22        74.0000   57.7100   60.8300 hc      1027 PP       0.001900
   9240 H1         76.2800   58.9300   62.4200 hc      1027 PP       0.001800
   9241 HB1        77.7300   56.9200   61.5300 hc      1027 PP       0.063200
   9242 HB2        76.3900   56.2700   62.5200 hc      1027 PP       0.063200
   9243 HB3        76.2400   56.2400   60.8400 hc      1027 PP       0.063200
   9244 C2         76.4200   58.9300   60.1900 c3      1028 PP      -0.006100
   9245 C1         77.8300   59.6400   60.1500 c3      1028 PP       0.076800
   9246 CB         78.9000   58.7900   59.5600 c3      1028 PP      -0.265900
   9247 H21        76.3100   58.1000   59.4800 hc      1028 PP       0.001900
   9248 H22        75.7100   59.7200   59.9000 hc      1028 PP       0.001900
   9249 H1         78.1400   59.9100   61.1800 hc      1028 PP       0.001800
   9250 HB1        78.8900   58.7600   58.4600 hc      1028 PP       0.063200
   9251 HB2        79.8800   58.8700   60.0400 hc      1028 PP       0.063200
   9252 HB3        78.7200   57.7200   59.7000 hc      1028 PP       0.063200
   9253 C2         77.9000   60.9800   59.3900 c3      1029 PP      -0.006100
   9254 C1         78.8300   62.0500   60.1000 c3      1029 PP       0.076800
   9255 CB         80.3300   61.7200   60.4200 c3      1029 PP      -0.265900
   9256 H21        78.1300   60.8500   58.3200 hc      1029 PP       0.001900
   9257 H22        76.8600   61.3300   59.3000 hc      1029 PP       0.001900
   9258 H1         78.2900   62.2200   61.0400 hc      1029 PP       0.001800
   9259 HB1        80.4500   60.9100   61.1500 hc      1029 PP       0.063200
   9260 HB2        80.8900   61.4400   59.5100 hc      1029 PP       0.063200
   9261 HB3        80.9300   62.5400   60.8300 hc      1029 PP       0.063200
   9262 C2         78.7600   63.3300   59.3100 c3      1030 PP      -0.006100
   9263 C1         77.8300   64.4700   59.9100 c3      1030 PP       0.076800
   9264 CB         76.4500   63.9400   60.3300 c3      1030 PP      -0.265900
   9265 H21        79.7400   63.8000   59.1400 hc      1030 PP       0.001900
   9266 H22        78.4100   63.0700   58.3000 hc      1030 PP       0.001900
   9267 H1         77.7000   65.1100   59.0200 hc      1030 PP       0.001800
   9268 HB1        76.4800   63.4200   61.3000 hc      1030 PP       0.063200
   9269 HB2        75.6200   64.6500   60.4200 hc      1030 PP       0.063200
   9270 HB3        76.1100   63.2000   59.5900 hc      1030 PP       0.063200
   9271 C2         78.5600   65.2300   61.0000 c3      1031 PP      -0.006100
   9272 C1         78.7200   66.7400   60.7400 c3      1031 PP       0.076800
   9273 CB         77.3500   67.5100   60.8100 c3      1031 PP      -0.265900
   9274 H21        78.0100   65.0700   61.9300 hc      1031 PP       0.001900
   9275 H22        79.5600   64.7900   61.1200 hc      1031 PP       0.001900
   9276 H1         79.1000   66.9400   59.7200 hc      1031 PP       0.001800
   9277 HB1        76.6400   66.9800   60.1700 hc      1031 PP       0.063200
   9278 HB2        76.9400   67.3400   61.8200 hc      1031 PP       0.063200
   9279 HB3        77.3300   68.5400   60.4400 hc      1031 PP       0.063200
   9280 C2         79.7200   67.4200   61.7700 c3      1032 PP      -0.006100
   9281 C1         79.9900   68.9500   61.4600 c3      1032 PP       0.076800
   9282 CB         78.9700   69.8300   62.3300 c3      1032 PP      -0.265900
   9283 H21        79.2800   67.2200   62.7500 hc      1032 PP       0.001900
   9284 H22        80.6700   66.8700   61.6900 hc      1032 PP       0.001900
   9285 H1         79.8000   69.1100   60.3900 hc      1032 PP       0.001800
   9286 HB1        79.2700   69.6800   63.3700 hc      1032 PP       0.063200
   9287 HB2        79.0200   70.8900   62.0600 hc      1032 PP       0.063200
   9288 HB3        77.9300   69.5100   62.2300 hc      1032 PP       0.063200
   9289 C2          1.4700   69.2500   61.7800 c3      1033 PP      -0.006100
   9290 C1          1.9100   70.7600   61.6100 c3      1033 PP       0.076800
   9291 CB          3.4300   70.8900   61.8500 c3      1033 PP      -0.265900
   9292 H21         1.5800   68.8500   62.7900 hc      1033 PP       0.001900
   9293 H22         2.1200   68.6500   61.1300 hc      1033 PP       0.001900
   9294 H1          1.5000   71.3700   62.4200 hc      1033 PP       0.001800
   9295 HB1         4.0000   70.8400   60.9200 hc      1033 PP       0.063200
   9296 HB2         3.6900   71.8100   62.3900 hc      1033 PP       0.063200
   9297 HB3         3.8300   70.0600   62.4500 hc      1033 PP       0.063200
   9298 C2          1.4800   71.3600   60.2300 c3      1034 PP      -0.006100
   9299 C1          1.9000   72.8900   60.0600 c3      1034 PP       0.076800
   9300 CB          1.5400   73.4300   58.6200 c3      1034 PP      -0.265900
   9301 H21         1.7000   70.7800   59.3300 hc      1034 PP       0.001900
   9302 H22         0.3900   71.3800   60.1700 hc      1034 PP       0.001900
   9303 H1          3.0000   72.8800   60.0100 hc      1034 PP       0.001800
   9304 HB1         2.0600   72.7300   57.9600 hc      1034 PP       0.063200
   9305 HB2         0.4500   73.3900   58.5100 hc      1034 PP       0.063200
   9306 HB3         1.8800   74.4600   58.4100 hc      1034 PP       0.063200
   9307 C2          1.3600   73.9000   61.1800 c3      1035 PP      -0.006100
   9308 C1          1.4900   75.5200   60.9100 c3      1035 PP       0.076800
   9309 CB          0.7900   76.3000   62.0700 c3      1035 PP      -0.265900
   9310 H21         0.3200   73.7000   61.4600 hc      1035 PP       0.001900
   9311 H22         1.9400   73.8700   62.1100 hc      1035 PP       0.001900
   9312 H1          0.9600   75.7300   59.9800 hc      1035 PP       0.001800
   9313 HB1         0.3400   77.2600   61.7900 hc      1035 PP       0.063200
   9314 HB2        -0.0100   75.7500   62.5800 hc      1035 PP       0.063200
   9315 HB3         1.5000   76.6200   62.8500 hc      1035 PP       0.063200
   9316 C2          2.9900   75.9400   60.7900 c3      1036 PP      -0.006100
   9317 C1          3.3700   77.4700   60.6000 c3      1036 PP       0.076800
   9318 CB          2.3800   78.2300   59.6800 c3      1036 PP      -0.265900
   9319 H21         3.6400   75.5600   61.5900 hc      1036 PP       0.001900
   9320 H22         3.3100   75.4600   59.8500 hc      1036 PP       0.001900
   9321 H1          4.3100   77.4700   60.0400 hc      1036 PP       0.001800
   9322 HB1         2.8800   79.1800   59.4600 hc      1036 PP       0.063200
   9323 HB2         2.0100   77.6400   58.8300 hc      1036 PP       0.063200
   9324 HB3         1.4600   78.4800   60.2100 hc      1036 PP       0.063200
   9325 C2          3.5900   78.3200   61.8500 c3      1037 PP      -0.006100
   9326 C1          4.7300   77.9000   62.8400 c3      1037 PP       0.076800
   9327 CB          6.0500   77.8200   62.0300 c3      1037 PP      -0.265900
   9328 H21         3.8800   79.2900   61.4100 hc      1037 PP       0.001900
   9329 H22         2.6300   78.5300   62.3500 hc      1037 PP       0.001900
   9330 H1          4.6500   76.8400   63.1100 hc      1037 PP       0.001800
   9331 HB1         6.2200   78.6400   61.3100 hc      1037 PP       0.063200
   9332 HB2         6.9400   77.7600   62.6700 hc      1037 PP       0.063200
   9333 HB3         5.9900   76.8900   61.4500 hc      1037 PP       0.063200
   9334 C2          4.8300   78.8200   64.0800 c3      1038 PP      -0.006100
   9335 C1          3.5100   79.3100   64.8000 c3      1038 PP       0.076800
   9336 CB          2.7900   78.0400   65.4600 c3      1038 PP      -0.265900
   9337 H21         5.5100   78.4200   64.8500 hc      1038 PP       0.001900
   9338 H22         5.3200   79.7400   63.7500 hc      1038 PP       0.001900
   9339 H1          2.8000   79.7200   64.0700 hc      1038 PP       0.001800
   9340 HB1         2.5600   77.2400   64.7500 hc      1038 PP       0.063200
   9341 HB2         3.4300   77.5900   66.2300 hc      1038 PP       0.063200
   9342 HB3         1.8400   78.3500   65.9100 hc      1038 PP       0.063200
   9343 C2          3.7400    0.4000   65.8700 c3      1039 PP      -0.006100
   9344 C1          3.2200    1.8200   65.4000 c3      1039 PP       0.076800
   9345 CB          3.8000    2.1500   63.9200 c3      1039 PP      -0.265900
   9346 H21         3.2100    0.0000   66.7500 hc      1039 PP       0.001900
   9347 H22         4.8100    0.5100   66.0900 hc      1039 PP       0.001900
   9348 H1          3.5700    2.5400   66.1500 hc      1039 PP       0.001800
   9349 HB1         4.8900    2.2400   64.0100 hc      1039 PP       0.063200
   9350 HB2         3.4900    1.3700   63.2100 hc      1039 PP       0.063200
   9351 HB3         3.3900    3.0800   63.5000 hc      1039 PP       0.063200
   9352 C2          1.6900    1.9100   65.4500 c3      1040 PP      -0.006100
   9353 C1          0.9100    3.1900   65.0000 c3      1040 PP       0.076800
   9354 CB         -0.5900    3.0500   64.9000 c3      1040 PP      -0.265900
   9355 H21         1.3100    1.0100   64.9400 hc      1040 PP       0.001900
   9356 H22         1.3000    1.7600   66.4600 hc      1040 PP       0.001900
   9357 H1          1.3200    3.6400   64.0900 hc      1040 PP       0.001800
   9358 HB1        -1.0700    3.9900   64.6200 hc      1040 PP       0.063200
   9359 HB2        -0.8500    2.2300   64.2100 hc      1040 PP       0.063200
   9360 HB3        -1.0100    2.7400   65.8700 hc      1040 PP       0.063200
   9361 C2          1.3400    4.2900   66.0300 c3      1041 PP      -0.006100
   9362 C1          0.6300    5.7200   65.9000 c3      1041 PP       0.076800
   9363 CB         -0.4200    5.7500   67.0500 c3      1041 PP      -0.265900
   9364 H21         1.1400    3.9500   67.0500 hc      1041 PP       0.001900
   9365 H22         2.4200    4.4600   65.9000 hc      1041 PP       0.001900
   9366 H1          0.0500    5.7700   64.9700 hc      1041 PP       0.001800
   9367 HB1        -1.0800    6.5800   66.7600 hc      1041 PP       0.063200
   9368 HB2        -1.0300    4.8400   67.0900 hc      1041 PP       0.063200
   9369 HB3         0.0400    6.0300   68.0000 hc      1041 PP       0.063200
   9370 C2          1.6900    6.9100   66.1100 c3      1042 PP      -0.006100
   9371 C1          1.0200    8.3400   66.4200 c3      1042 PP       0.076800
   9372 CB          2.3000    9.2800   66.7400 c3      1042 PP      -0.265900
   9373 H21         2.3600    6.5700   66.9200 hc      1042 PP       0.001900
   9374 H22         2.4100    6.9100   65.2800 hc      1042 PP       0.001900
   9375 H1          0.4100    8.3400   67.3300 hc      1042 PP       0.001800
   9376 HB1         3.0700    8.7900   67.3400 hc      1042 PP       0.063200
   9377 HB2         2.8600    9.6600   65.8800 hc      1042 PP       0.063200
   9378 HB3         2.0200   10.2200   67.2400 hc      1042 PP       0.063200
   9379 C2         80.0400    8.8300   65.2900 c3      1043 PP      -0.006100
   9380 C1         78.9500    9.8700   65.6900 c3      1043 PP       0.076800
   9381 CB         78.0200    9.4100   66.8200 c3      1043 PP      -0.265900
   9382 H21        80.5800    9.2400   64.4300 hc      1043 PP       0.001900
   9383 H22        79.4100    8.0300   64.8800 hc      1043 PP       0.001900
   9384 H1         78.2300    9.9100   64.8600 hc      1043 PP       0.001800
   9385 HB1        78.4900    9.5100   67.8000 hc      1043 PP       0.063200
   9386 HB2        77.0000    9.8000   66.8000 hc      1043 PP       0.063200
   9387 HB3        77.8000    8.3500   66.6100 hc      1043 PP       0.063200
   9388 C2         79.5000   11.2800   65.8900 c3      1044 PP      -0.006100
   9389 C1         78.3500   12.2900   66.2100 c3      1044 PP       0.076800
   9390 CB         78.9000   13.5700   66.8300 c3      1044 PP      -0.265900
   9391 H21        80.2600   11.2500   66.6900 hc      1044 PP       0.001900
   9392 H22        80.0500   11.6000   65.0000 hc      1044 PP       0.001900
   9393 H1         77.8700   11.9700   67.1400 hc      1044 PP       0.001800
   9394 HB1        79.6900   13.9500   66.1700 hc      1044 PP       0.063200
   9395 HB2        78.0800   14.2900   66.9700 hc      1044 PP       0.063200
   9396 HB3        79.4300   13.2800   67.7400 hc      1044 PP       0.063200
   9397 C2         77.3600   12.6600   65.0200 c3      1045 PP      -0.006100
   9398 C1         75.9300   12.0000   65.1800 c3      1045 PP       0.076800
   9399 CB         75.2000   12.7200   66.3800 c3      1045 PP      -0.265900
   9400 H21        77.2400   13.7500   64.9500 hc      1045 PP       0.001900
   9401 H22        77.8400   12.3900   64.0700 hc      1045 PP       0.001900
   9402 H1         76.0100   10.9400   65.4400 hc      1045 PP       0.001800
   9403 HB1        74.3400   12.1400   66.7500 hc      1045 PP       0.063200
   9404 HB2        75.8200   12.9800   67.2500 hc      1045 PP       0.063200
   9405 HB3        74.7300   13.6200   65.9800 hc      1045 PP       0.063200
   9406 C2         75.0000   12.1900   63.8900 c3      1046 PP      -0.006100
   9407 C1         73.6100   11.4400   63.9000 c3      1046 PP       0.076800
   9408 CB         72.6000   12.0700   62.9000 c3      1046 PP      -0.265900
   9409 H21        74.8600   13.2700   63.7600 hc      1046 PP       0.001900
   9410 H22        75.5700   11.9800   62.9800 hc      1046 PP       0.001900
   9411 H1         73.2000   11.5400   64.9100 hc      1046 PP       0.001800
   9412 HB1        73.1200   12.3200   61.9700 hc      1046 PP       0.063200
   9413 HB2        71.7800   11.3800   62.6800 hc      1046 PP       0.063200
   9414 HB3        72.2000   13.0200   63.2800 hc      1046 PP       0.063200
   9415 C2         73.8800    9.9400   63.6200 c3      1047 PP      -0.006100
   9416 C1         72.7000    8.9400   63.8100 c3      1047 PP       0.076800
   9417 CB         72.0700    8.4900   62.4500 c3      1047 PP      -0.265900
   9418 H21        74.3100    9.9100   62.6100 hc      1047 PP       0.001900
   9419 H22        74.7100    9.6100   64.2600 hc      1047 PP       0.001900
   9420 H1         71.8900    9.3900   64.3900 hc      1047 PP       0.001800
   9421 HB1        72.6700    7.8700   61.7700 hc      1047 PP       0.063200
   9422 HB2        71.1000    8.0000   62.6200 hc      1047 PP       0.063200
   9423 HB3        71.7100    9.3800   61.9100 hc      1047 PP       0.063200
   9424 C2         73.1200    7.6200   64.5600 c3      1048 PP      -0.006100
   9425 C1         73.4700    7.6900   66.0500 c3      1048 PP       0.076800
   9426 CB         72.3300    8.3800   66.8600 c3      1048 PP      -0.265900
   9427 H21        72.3200    6.9200   64.3100 hc      1048 PP       0.001900
   9428 H22        73.9500    7.2800   63.9300 hc      1048 PP       0.001900
   9429 H1         74.4100    8.2400   66.1700 hc      1048 PP       0.001800
   9430 HB1        71.3000    8.0700   66.6200 hc      1048 PP       0.063200
   9431 HB2        72.6000    8.1600   67.8900 hc      1048 PP       0.063200
   9432 HB3        72.4600    9.4700   66.8100 hc      1048 PP       0.063200
   9433 C2         73.6800    6.2000   66.6200 c3      1049 PP      -0.006100
   9434 C1         74.8700    5.4100   65.9900 c3      1049 PP       0.076800
   9435 CB         76.2100    6.1300   66.0800 c3      1049 PP      -0.265900
   9436 H21        73.8400    6.2700   67.7000 hc      1049 PP       0.001900
   9437 H22        72.7600    5.6500   66.3800 hc      1049 PP       0.001900
   9438 H1         74.7000    5.2400   64.9200 hc      1049 PP       0.001800
   9439 HB1        76.4200    6.5700   67.0600 hc      1049 PP       0.063200
   9440 HB2        77.0800    5.5600   65.7200 hc      1049 PP       0.063200
   9441 HB3        76.2900    6.9600   65.3600 hc      1049 PP       0.063200
   9442 C2         74.9900    3.9500   66.6300 c3      1050 PP      -0.006100
   9443 C1         75.6300    2.8100   65.7800 c3      1050 PP       0.076800
   9444 CB         76.1400    1.6900   66.6100 c3      1050 PP      -0.265900
   9445 H21        73.9600    3.6100   66.7900 hc      1050 PP       0.001900
   9446 H22        75.4700    4.0800   67.6100 hc      1050 PP       0.001900
   9447 H1         76.4100    3.2900   65.1700 hc      1050 PP       0.001800
   9448 HB1        76.6700    1.0100   65.9400 hc      1050 PP       0.063200
   9449 HB2        76.8700    1.9700   67.3700 hc      1050 PP       0.063200
   9450 HB3        75.3000    1.1500   67.0600 hc      1050 PP       0.063200
   9451 C2         74.1700   50.2800   67.2800 c3      1051 PP      -0.006100
   9452 C1         74.4200   49.5000   65.9600 c3      1051 PP       0.076800
   9453 CB         75.1000   48.1400   66.2800 c3      1051 PP      -0.265900
   9454 H21        74.0700   51.3400   67.0300 hc      1051 PP       0.001900
   9455 H22        73.2300   49.9900   67.7600 hc      1051 PP       0.001900
   9456 H1         75.1900   50.1200   65.4800 hc      1051 PP       0.001800
   9457 HB1        76.1900   48.2900   66.2800 hc      1051 PP       0.063200
   9458 HB2        74.8200   47.8300   67.3000 hc      1051 PP       0.063200
   9459 HB3        74.7700   47.4000   65.5400 hc      1051 PP       0.063200
   9460 C2         73.2200   49.4000   64.9600 c3      1052 PP      -0.006100
   9461 C1         71.9400   48.7200   65.4900 c3      1052 PP       0.076800
   9462 CB         71.0500   49.9100   65.8300 c3      1052 PP      -0.265900
   9463 H21        73.1100   50.3400   64.4100 hc      1052 PP       0.001900
   9464 H22        73.5700   48.7500   64.1400 hc      1052 PP       0.001900
   9465 H1         72.1700   48.1700   66.4000 hc      1052 PP       0.001800
   9466 HB1        70.0000   49.6100   65.9600 hc      1052 PP       0.063200
   9467 HB2        71.3900   50.3600   66.7700 hc      1052 PP       0.063200
   9468 HB3        71.0100   50.7800   65.1600 hc      1052 PP       0.063200
   9469 C2         71.1400   47.7700   64.6100 c3      1053 PP      -0.006100
   9470 C1         71.7500   46.3300   64.5500 c3      1053 PP       0.076800
   9471 CB         71.4000   45.4900   65.8200 c3      1053 PP      -0.265900
   9472 H21        70.1200   47.6900   64.9800 hc      1053 PP       0.001900
   9473 H22        70.9900   48.1900   63.6100 hc      1053 PP       0.001900
   9474 H1         72.8300   46.4500   64.4100 hc      1053 PP       0.001800
   9475 HB1        70.3900   45.5900   66.2200 hc      1053 PP       0.063200
   9476 HB2        71.4900   44.4200   65.6000 hc      1053 PP       0.063200
   9477 HB3        72.1400   45.6200   66.6200 hc      1053 PP       0.063200
   9478 C2         71.1700   45.7000   63.2200 c3      1054 PP      -0.006100
   9479 C1         72.1800   45.2300   62.1800 c3      1054 PP       0.076800
   9480 CB         73.0200   46.5000   61.7200 c3      1054 PP      -0.265900
   9481 H21        70.5000   44.8800   63.5000 hc      1054 PP       0.001900
   9482 H22        70.4200   46.3700   62.7700 hc      1054 PP       0.001900
   9483 H1         71.5700   44.8800   61.3400 hc      1054 PP       0.001800
   9484 HB1        73.2500   46.4800   60.6500 hc      1054 PP       0.063200
   9485 HB2        72.5000   47.4500   61.8800 hc      1054 PP       0.063200
   9486 HB3        73.9900   46.6200   62.2200 hc      1054 PP       0.063200
   9487 C2         72.9800   44.0100   62.6700 c3      1055 PP      -0.006100
   9488 C1         74.1200   43.4500   61.6700 c3      1055 PP       0.076800
   9489 CB         74.6400   42.1000   62.2900 c3      1055 PP      -0.265900
   9490 H21        73.5200   44.3200   63.5700 hc      1055 PP       0.001900
   9491 H22        72.2400   43.2500   62.9800 hc      1055 PP       0.001900
   9492 H1         74.8600   44.2500   61.5600 hc      1055 PP       0.001800
   9493 HB1        75.5800   41.7700   61.8400 hc      1055 PP       0.063200
   9494 HB2        74.8300   42.2700   63.3600 hc      1055 PP       0.063200
   9495 HB3        73.8400   41.3600   62.3500 hc      1055 PP       0.063200
   9496 C2         73.5300   43.1300   60.1800 c3      1056 PP      -0.006100
   9497 C1         74.5700   42.9300   59.0100 c3      1056 PP       0.076800
   9498 CB         75.1700   44.2400   58.5100 c3      1056 PP      -0.265900
   9499 H21        72.8900   42.2400   60.2500 hc      1056 PP       0.001900
   9500 H22        72.9900   44.0500   59.9300 hc      1056 PP       0.001900
   9501 H1         73.9400   42.4700   58.2400 hc      1056 PP       0.001800
   9502 HB1        75.7700   44.7300   59.2800 hc      1056 PP       0.063200
   9503 HB2        75.7400   44.0900   57.5900 hc      1056 PP       0.063200
   9504 HB3        74.4000   44.9600   58.2000 hc      1056 PP       0.063200
   9505 C2         75.7100   41.8100   59.2000 c3      1057 PP      -0.006100
   9506 C1         76.2600   41.1100   57.8500 c3      1057 PP       0.076800
   9507 CB         77.6800   40.6500   57.9600 c3      1057 PP      -0.265900
   9508 H21        76.5300   42.2300   59.7900 hc      1057 PP       0.001900
   9509 H22        75.3300   41.0000   59.8300 hc      1057 PP       0.001900
   9510 H1         76.2200   41.8000   57.0000 hc      1057 PP       0.001800
   9511 HB1        78.0800   40.5800   56.9400 hc      1057 PP       0.063200
   9512 HB2        78.3500   41.3600   58.4900 hc      1057 PP       0.063200
   9513 HB3        77.8300   39.7200   58.5200 hc      1057 PP       0.063200
   9514 C2         75.3600   39.9200   57.4300 c3      1058 PP      -0.006100
   9515 C1         75.3600   39.5500   55.9400 c3      1058 PP       0.076800
   9516 CB         75.7900   38.0900   55.5800 c3      1058 PP      -0.265900
   9517 H21        75.7600   39.0700   57.9900 hc      1058 PP       0.001900
   9518 H22        74.3500   39.9600   57.8600 hc      1058 PP       0.001900
   9519 H1         76.1200   40.1500   55.4300 hc      1058 PP       0.001800
   9520 HB1        75.7800   38.0300   54.4800 hc      1058 PP       0.063200
   9521 HB2        76.8700   37.9500   55.7400 hc      1058 PP       0.063200
   9522 HB3        75.1200   37.3200   55.9700 hc      1058 PP       0.063200
   9523 C2         73.9800   39.7100   55.2400 c3      1059 PP      -0.006100
   9524 C1         73.1200   41.0100   55.4300 c3      1059 PP       0.076800
   9525 CB         73.9300   42.2600   55.2200 c3      1059 PP      -0.265900
   9526 H21        74.1100   39.5800   54.1600 hc      1059 PP       0.001900
   9527 H22        73.3400   38.9000   55.6200 hc      1059 PP       0.001900
   9528 H1         72.7900   41.0200   56.4800 hc      1059 PP       0.001800
   9529 HB1        73.4300   43.1300   55.6700 hc      1059 PP       0.063200
   9530 HB2        74.9600   42.2500   55.6000 hc      1059 PP       0.063200
   9531 HB3        74.0400   42.5300   54.1700 hc      1059 PP       0.063200
   9532 C2         71.8200   41.0900   54.5300 c3      1060 PP      -0.006100
   9533 C1         70.7400   39.9700   54.8200 c3      1060 PP       0.076800
   9534 CB         70.1700   40.1900   56.2000 c3      1060 PP      -0.265900
   9535 H21        71.3600   42.0900   54.5700 hc      1060 PP       0.001900
   9536 H22        72.1200   41.0300   53.4700 hc      1060 PP       0.001900
   9537 H1         71.3500   39.0500   54.8000 hc      1060 PP       0.001800
   9538 HB1        69.4600   39.3800   56.4300 hc      1060 PP       0.063200
   9539 HB2        70.9400   40.1700   56.9900 hc      1060 PP       0.063200
   9540 HB3        69.7100   41.1800   56.2900 hc      1060 PP       0.063200
   9541 C2         69.6200   39.9300   53.7700 c3      1061 PP      -0.006100
   9542 C1         69.2900   38.5800   53.1100 c3      1061 PP       0.076800
   9543 CB         68.5900   37.6100   54.1300 c3      1061 PP      -0.265900
   9544 H21        68.6900   40.1900   54.3000 hc      1061 PP       0.001900
   9545 H22        69.8200   40.7000   53.0100 hc      1061 PP       0.001900
   9546 H1         70.2500   38.1200   52.8400 hc      1061 PP       0.001800
   9547 HB1        67.6000   37.9600   54.4400 hc      1061 PP       0.063200
   9548 HB2        68.6100   36.5800   53.7600 hc      1061 PP       0.063200
   9549 HB3        69.0400   37.5900   55.1300 hc      1061 PP       0.063200
   9550 C2         68.4600   38.8100   51.8000 c3      1062 PP      -0.006100
   9551 C1         67.9600   37.5400   51.0300 c3      1062 PP       0.076800
   9552 CB         66.7400   38.0400   50.1900 c3      1062 PP      -0.265900
   9553 H21        67.7100   39.5600   52.0400 hc      1062 PP       0.001900
   9554 H22        69.0800   39.3300   51.0500 hc      1062 PP       0.001900
   9555 H1         67.4800   36.8400   51.7200 hc      1062 PP       0.001800
   9556 HB1        65.9900   38.4000   50.9100 hc      1062 PP       0.063200
   9557 HB2        66.9300   38.9300   49.5600 hc      1062 PP       0.063200
   9558 HB3        66.2500   37.1900   49.7000 hc      1062 PP       0.063200
   9559 C2         69.0100   36.7300   50.1400 c3      1063 PP      -0.006100
   9560 C1         69.6600   35.5100   50.8600 c3      1063 PP       0.076800
   9561 CB         68.6300   34.3700   51.1700 c3      1063 PP      -0.265900
   9562 H21        68.5600   36.3300   49.2300 hc      1063 PP       0.001900
   9563 H22        69.8300   37.4200   49.9000 hc      1063 PP       0.001900
   9564 H1         69.9900   35.8300   51.8600 hc      1063 PP       0.001800
   9565 HB1        67.8600   34.6500   51.9000 hc      1063 PP       0.063200
   9566 HB2        68.0600   34.1500   50.2600 hc      1063 PP       0.063200
   9567 HB3        69.1700   33.5000   51.5700 hc      1063 PP       0.063200
   9568 C2         70.9100   34.8700   50.1600 c3      1064 PP      -0.006100
   9569 C1         72.0400   34.3000   51.1200 c3      1064 PP       0.076800
   9570 CB         72.6500   32.9100   50.7100 c3      1064 PP      -0.265900
   9571 H21        70.6800   34.1100   49.4000 hc      1064 PP       0.001900
   9572 H22        71.4500   35.6600   49.6100 hc      1064 PP       0.001900
   9573 H1         71.5300   34.1900   52.0800 hc      1064 PP       0.001800
   9574 HB1        73.5800   32.9900   50.1400 hc      1064 PP       0.063200
   9575 HB2        72.8300   32.3500   51.6400 hc      1064 PP       0.063200
   9576 HB3        71.9000   32.3600   50.1300 hc      1064 PP       0.063200
   9577 C2         73.2000   35.3500   51.2700 c3      1065 PP      -0.006100
   9578 C1         72.7900   36.6000   52.0500 c3      1065 PP       0.076800
   9579 CB         72.7900   36.2700   53.5600 c3      1065 PP      -0.265900
   9580 H21        74.0800   34.9100   51.7700 hc      1065 PP       0.001900
   9581 H22        73.5700   35.6200   50.2700 hc      1065 PP       0.001900
   9582 H1         71.7800   36.9400   51.7700 hc      1065 PP       0.001800
   9583 HB1        72.3600   37.0600   54.2000 hc      1065 PP       0.063200
   9584 HB2        72.3400   35.3100   53.8600 hc      1065 PP       0.063200
   9585 HB3        73.8300   36.1800   53.8900 hc      1065 PP       0.063200
   9586 C2         73.7900   37.8100   51.8500 c3      1066 PP      -0.006100
   9587 C1         74.1300   38.2600   50.3800 c3      1066 PP       0.076800
   9588 CB         72.7800   38.5300   49.5800 c3      1066 PP      -0.265900
   9589 H21        73.3900   38.6800   52.3700 hc      1066 PP       0.001900
   9590 H22        74.7100   37.5200   52.3800 hc      1066 PP       0.001900
   9591 H1         74.6600   37.4300   49.9000 hc      1066 PP       0.001800
   9592 HB1        72.4500   37.5600   49.2100 hc      1066 PP       0.063200
   9593 HB2        72.0000   38.8900   50.2700 hc      1066 PP       0.063200
   9594 HB3        72.8500   39.2300   48.7400 hc      1066 PP       0.063200
   9595 C2         75.1300   39.5700   50.3300 c3      1067 PP      -0.006100
   9596 C1         76.4600   39.4700   51.1000 c3      1067 PP       0.076800
   9597 CB         77.3100   38.2600   50.6100 c3      1067 PP      -0.265900
   9598 H21        75.3700   39.8700   49.3100 hc      1067 PP       0.001900
   9599 H22        74.5900   40.4100   50.7900 hc      1067 PP       0.001900
   9600 H1         76.2200   39.4100   52.1700 hc      1067 PP       0.001800
   9601 HB1        77.6700   38.4800   49.6000 hc      1067 PP       0.063200
   9602 HB2        78.1100   38.0900   51.3400 hc      1067 PP       0.063200
   9603 HB3        76.8200   37.2800   50.5000 hc      1067 PP       0.063200
   9604 C2         77.3100   40.7200   50.7500 c3      1068 PP      -0.006100
   9605 C1         76.9400   42.0500   51.3300 c3      1068 PP       0.076800
   9606 CB         76.9600   42.2400   52.8900 c3      1068 PP      -0.265900
   9607 H21        78.3200   40.5200   51.1300 hc      1068 PP       0.001900
   9608 H22        77.5500   40.7400   49.6800 hc      1068 PP       0.001900
   9609 H1         75.9200   42.2400   50.9800 hc      1068 PP       0.001800
   9610 HB1        76.4900   43.1500   53.2800 hc      1068 PP       0.063200
   9611 HB2        76.4600   41.3600   53.3100 hc      1068 PP       0.063200
   9612 HB3        78.0200   42.1700   53.1800 hc      1068 PP       0.063200
   9613 C2         77.7700   43.2200   50.6600 c3      1069 PP      -0.006100
   9614 C1         77.2300   44.6200   50.8600 c3      1069 PP       0.076800
   9615 CB         78.3400   45.5300   50.1500 c3      1069 PP      -0.265900
   9616 H21        78.7900   43.2100   51.0700 hc      1069 PP       0.001900
   9617 H22        77.8300   42.9700   49.5900 hc      1069 PP       0.001900
   9618 H1         77.2400   44.9200   51.9200 hc      1069 PP       0.001800
   9619 HB1        78.0000   46.4100   49.5900 hc      1069 PP       0.063200
   9620 HB2        78.8100   45.9200   51.0700 hc      1069 PP       0.063200
   9621 HB3        79.1400   45.0600   49.5700 hc      1069 PP       0.063200
   9622 C2         75.8100   44.8300   50.2300 c3      1070 PP      -0.006100
   9623 C1         74.9900   45.9300   50.8700 c3      1070 PP       0.076800
   9624 CB         75.1000   47.3600   50.3100 c3      1070 PP      -0.265900
   9625 H21        75.9800   44.9900   49.1600 hc      1070 PP       0.001900
   9626 H22        75.2100   43.9100   50.2200 hc      1070 PP       0.001900
   9627 H1         75.3100   45.9400   51.9200 hc      1070 PP       0.001800
   9628 HB1        74.7100   48.0800   51.0400 hc      1070 PP       0.063200
   9629 HB2        76.1500   47.6100   50.1200 hc      1070 PP       0.063200
   9630 HB3        74.5700   47.4800   49.3600 hc      1070 PP       0.063200
   9631 C2         73.4500   45.5500   50.8900 c3      1071 PP      -0.006100
   9632 C1         73.0900   44.4200   51.8400 c3      1071 PP       0.076800
   9633 CB         73.2500   44.8900   53.3300 c3      1071 PP      -0.265900
   9634 H21        72.9100   46.4500   51.2100 hc      1071 PP       0.001900
   9635 H22        73.1500   45.3000   49.8600 hc      1071 PP       0.001900
   9636 H1         73.7800   43.5700   51.8200 hc      1071 PP       0.001800
   9637 HB1        72.4900   44.4100   53.9600 hc      1071 PP       0.063200
   9638 HB2        74.2300   44.6700   53.7600 hc      1071 PP       0.063200
   9639 HB3        73.0700   45.9700   53.4800 hc      1071 PP       0.063200
   9640 C2         71.6200   43.8700   51.7200 c3      1072 PP      -0.006100
   9641 C1         71.2200   43.2600   50.2900 c3      1072 PP       0.076800
   9642 CB         72.3100   42.3300   49.6900 c3      1072 PP      -0.265900
   9643 H21        71.4300   43.1600   52.5300 hc      1072 PP       0.001900
   9644 H22        71.0300   44.7900   51.8200 hc      1072 PP       0.001900
   9645 H1         71.0900   44.1400   49.6400 hc      1072 PP       0.001800
   9646 HB1        71.9600   41.8400   48.7800 hc      1072 PP       0.063200
   9647 HB2        73.2100   42.9500   49.5200 hc      1072 PP       0.063200
   9648 HB3        72.6300   41.5500   50.3900 hc      1072 PP       0.063200
   9649 C2         69.8300   42.6100   50.2400 c3      1073 PP      -0.006100
   9650 C1         68.5600   43.3000   50.8700 c3      1073 PP       0.076800
   9651 CB         68.4300   44.7300   50.3000 c3      1073 PP      -0.265900
   9652 H21        69.4800   42.3500   49.2300 hc      1073 PP       0.001900
   9653 H22        69.8500   41.6400   50.7500 hc      1073 PP       0.001900
   9654 H1         68.8700   43.3900   51.9200 hc      1073 PP       0.001800
   9655 HB1        68.6700   44.7800   49.2300 hc      1073 PP       0.063200
   9656 HB2        67.4000   44.9500   50.5900 hc      1073 PP       0.063200
   9657 HB3        69.1700   45.3400   50.8400 hc      1073 PP       0.063200
   9658 C2         67.2500   42.5400   50.7600 c3      1074 PP      -0.006100
   9659 C1         66.2000   42.6700   51.8900 c3      1074 PP       0.076800
   9660 CB         64.9200   41.8800   51.5000 c3      1074 PP      -0.265900
   9661 H21        66.7900   42.9200   49.8400 hc      1074 PP       0.001900
   9662 H22        67.4600   41.5100   50.4300 hc      1074 PP       0.001900
   9663 H1         65.8300   43.7000   51.8700 hc      1074 PP       0.001800
   9664 HB1        63.9900   42.2900   51.9300 hc      1074 PP       0.063200
   9665 HB2        64.7200   41.9400   50.4200 hc      1074 PP       0.063200
   9666 HB3        64.9400   40.8600   51.9000 hc      1074 PP       0.063200
   9667 C2         66.8200   42.2200   53.3000 c3      1075 PP      -0.006100
   9668 C1         66.4400   43.1800   54.5000 c3      1075 PP       0.076800
   9669 CB         67.0100   42.6700   55.8400 c3      1075 PP      -0.265900
   9670 H21        66.4200   41.2100   53.4600 hc      1075 PP       0.001900
   9671 H22        67.9000   42.1400   53.1600 hc      1075 PP       0.001900
   9672 H1         65.3500   43.2500   54.5800 hc      1075 PP       0.001800
   9673 HB1        66.2200   42.8500   56.5900 hc      1075 PP       0.063200
   9674 HB2        67.1700   41.6000   55.6900 hc      1075 PP       0.063200
   9675 HB3        67.9700   43.0500   56.1900 hc      1075 PP       0.063200
   9676 C2         66.9500   44.6700   54.2700 c3      1076 PP      -0.006100
   9677 C1         66.1800   45.8800   55.1000 c3      1076 PP       0.076800
   9678 CB         66.7700   46.1100   56.4400 c3      1076 PP      -0.265900
   9679 H21        68.0000   44.7600   54.5500 hc      1076 PP       0.001900
   9680 H22        66.8900   44.8900   53.1900 hc      1076 PP       0.001900
   9681 H1         65.1600   45.4600   55.1500 hc      1076 PP       0.001800
   9682 HB1        67.6400   46.7800   56.5100 hc      1076 PP       0.063200
   9683 HB2        66.0000   46.7100   56.9500 hc      1076 PP       0.063200
   9684 HB3        66.8600   45.1200   56.9200 hc      1076 PP       0.063200
   9685 C2         66.1800   47.2200   54.3600 c3      1077 PP      -0.006100
   9686 C1         65.0100   47.4800   53.4300 c3      1077 PP       0.076800
   9687 CB         65.1100   48.9200   52.9000 c3      1077 PP      -0.265900
   9688 H21        66.3900   48.1000   54.9900 hc      1077 PP       0.001900
   9689 H22        67.1000   47.1400   53.7700 hc      1077 PP       0.001900
   9690 H1         64.0900   47.3600   54.0100 hc      1077 PP       0.001800
   9691 HB1        65.8500   49.0700   52.1000 hc      1077 PP       0.063200
   9692 HB2        64.1500   49.3300   52.5600 hc      1077 PP       0.063200
   9693 HB3        65.4200   49.5900   53.7100 hc      1077 PP       0.063200
   9694 C2         64.8500   46.4000   52.3000 c3      1078 PP      -0.006100
   9695 C1         63.6700   46.5700   51.2500 c3      1078 PP       0.076800
   9696 CB         63.7500   45.4100   50.2200 c3      1078 PP      -0.265900
   9697 H21        65.7500   46.3700   51.6800 hc      1078 PP       0.001900
   9698 H22        64.7000   45.4400   52.8000 hc      1078 PP       0.001900
   9699 H1         63.8100   47.4700   50.6400 hc      1078 PP       0.001800
   9700 HB1        63.6200   44.4700   50.7800 hc      1078 PP       0.063200
   9701 HB2        62.9700   45.5100   49.4600 hc      1078 PP       0.063200
   9702 HB3        64.7000   45.4700   49.6800 hc      1078 PP       0.063200
   9703 C2         62.3300   46.6800   51.8700 c3      1079 PP      -0.006100
   9704 C1         61.4500   47.8500   51.2700 c3      1079 PP       0.076800
   9705 CB         61.3700   47.7700   49.7100 c3      1079 PP      -0.265900
   9706 H21        61.7900   45.7400   51.7600 hc      1079 PP       0.001900
   9707 H22        62.3000   46.8000   52.9700 hc      1079 PP       0.001900
   9708 H1         62.0900   48.7200   51.4700 hc      1079 PP       0.001800
   9709 HB1        62.3300   48.0300   49.2700 hc      1079 PP       0.063200
   9710 HB2        60.9700   46.8700   49.2300 hc      1079 PP       0.063200
   9711 HB3        60.7700   48.5700   49.2500 hc      1079 PP       0.063200
   9712 C2         60.0800   47.8400   51.8800 c3      1080 PP      -0.006100
   9713 C1         60.0300   48.3500   53.3300 c3      1080 PP       0.076800
   9714 CB         58.9400   47.5800   54.2000 c3      1080 PP      -0.265900
   9715 H21        59.7200   46.8100   51.7600 hc      1080 PP       0.001900
   9716 H22        59.5100   48.6100   51.3400 hc      1080 PP       0.001900
   9717 H1         61.0000   48.4400   53.8400 hc      1080 PP       0.001800
   9718 HB1        58.0200   47.3500   53.6500 hc      1080 PP       0.063200
   9719 HB2        59.3000   46.6600   54.6700 hc      1080 PP       0.063200
   9720 HB3        58.7000   48.2200   55.0600 hc      1080 PP       0.063200
   9721 C2         77.5800   50.7300   66.3900 c3      1081 PP      -0.006100
   9722 C1         78.9700   51.2400   66.3500 c3      1081 PP       0.076800
   9723 CB         79.7900   50.3100   65.3800 c3      1081 PP      -0.265900
   9724 H21        76.7900   51.3200   66.8900 hc      1081 PP       0.001900
   9725 H22        77.5900   49.7900   66.9600 hc      1081 PP       0.001900
   9726 H1         79.4600   51.1100   67.3200 hc      1081 PP       0.001800
   9727 HB1        80.8500   50.3500   65.6400 hc      1081 PP       0.063200
   9728 HB2        79.4800   49.2700   65.4900 hc      1081 PP       0.063200
   9729 HB3        79.7300   50.6900   64.3500 hc      1081 PP       0.063200
   9730 C2         -0.9100   52.7900   66.0100 c3      1082 PP      -0.006100
   9731 C1          0.5900   53.2800   65.6200 c3      1082 PP       0.076800
   9732 CB          0.4400   54.6900   65.2400 c3      1082 PP      -0.265900
   9733 H21        -1.6000   53.0100   65.1800 hc      1082 PP       0.001900
   9734 H22        -1.3500   53.2100   66.9100 hc      1082 PP       0.001900
   9735 H1          0.7900   52.7400   64.6800 hc      1082 PP       0.001800
   9736 HB1         1.2200   54.9700   64.5300 hc      1082 PP       0.063200
   9737 HB2        -0.5200   54.8400   64.7300 hc      1082 PP       0.063200
   9738 HB3         0.5800   55.4200   66.0500 hc      1082 PP       0.063200
   9739 C2          1.6900   53.0100   66.6800 c3      1083 PP      -0.006100
   9740 C1          3.1300   52.9000   66.0500 c3      1083 PP       0.076800
   9741 CB          4.1000   53.9900   66.5100 c3      1083 PP      -0.265900
   9742 H21         1.6900   53.8100   67.4400 hc      1083 PP       0.001900
   9743 H22         1.4500   52.0700   67.2000 hc      1083 PP       0.001900
   9744 H1          2.9000   52.9900   64.9900 hc      1083 PP       0.001800
   9745 HB1         4.0300   54.0100   67.6100 hc      1083 PP       0.063200
   9746 HB2         5.1200   53.9700   66.1200 hc      1083 PP       0.063200
   9747 HB3         3.7400   54.9800   66.2000 hc      1083 PP       0.063200
   9748 C2          3.6500   51.5400   66.4700 c3      1084 PP      -0.006100
   9749 C1          5.1500   51.2500   66.0400 c3      1084 PP       0.076800
   9750 CB          5.5300   49.8500   66.4900 c3      1084 PP      -0.265900
   9751 H21         3.5800   51.3700   67.5500 hc      1084 PP       0.001900
   9752 H22         3.0700   50.7100   66.0300 hc      1084 PP       0.001900
   9753 H1          5.7900   51.9300   66.6200 hc      1084 PP       0.001800
   9754 HB1         4.9900   49.4300   67.3500 hc      1084 PP       0.063200
   9755 HB2         5.5800   49.0900   65.7000 hc      1084 PP       0.063200
   9756 HB3         6.5300   49.8100   66.9400 hc      1084 PP       0.063200
   9757 C2          5.3400   51.4300   64.4900 c3      1085 PP      -0.006100
   9758 C1          6.8000   51.3200   63.9500 c3      1085 PP       0.076800
   9759 CB          6.7200   51.0300   62.4100 c3      1085 PP      -0.265900
   9760 H21         4.7500   50.6100   64.0800 hc      1085 PP       0.001900
   9761 H22         4.9900   52.3900   64.1000 hc      1085 PP       0.001900
   9762 H1          7.3100   50.5200   64.5000 hc      1085 PP       0.001800
   9763 HB1         6.1800   51.8100   61.8500 hc      1085 PP       0.063200
   9764 HB2         7.7100   50.8900   61.9500 hc      1085 PP       0.063200
   9765 HB3         6.3100   50.0300   62.2800 hc      1085 PP       0.063200
   9766 C2          7.4900   52.6700   64.4700 c3      1086 PP      -0.006100
   9767 C1          8.9800   52.8200   64.0700 c3      1086 PP       0.076800
   9768 CB          9.2000   54.3500   64.0900 c3      1086 PP      -0.265900
   9769 H21         6.9100   53.5400   64.1400 hc      1086 PP       0.001900
   9770 H22         7.5200   52.8600   65.5500 hc      1086 PP       0.001900
   9771 H1          9.0700   52.5500   63.0100 hc      1086 PP       0.001800
   9772 HB1         8.6400   54.7400   63.2300 hc      1086 PP       0.063200
   9773 HB2         8.8200   54.9000   64.9500 hc      1086 PP       0.063200
   9774 HB3        10.2200   54.6600   63.8300 hc      1086 PP       0.063200
   9775 C2          9.9000   52.0500   65.0300 c3      1087 PP      -0.006100
   9776 C1         10.8700   50.9400   64.4300 c3      1087 PP       0.076800
   9777 CB         11.7000   51.4500   63.2300 c3      1087 PP      -0.265900
   9778 H21        10.4800   52.8200   65.5600 hc      1087 PP       0.001900
   9779 H22         9.3300   51.4500   65.7500 hc      1087 PP       0.001900
   9780 H1         10.1800   50.1900   64.0100 hc      1087 PP       0.001800
   9781 HB1        11.1500   51.7600   62.3300 hc      1087 PP       0.063200
   9782 HB2        12.3400   52.1800   63.7300 hc      1087 PP       0.063200
   9783 HB3        12.3000   50.6400   62.8000 hc      1087 PP       0.063200
   9784 C2         11.7600   50.1500   65.4900 c3      1088 PP      -0.006100
   9785 C1         11.3700   48.6700   65.7600 c3      1088 PP       0.076800
   9786 CB         12.3700   48.1000   66.7900 c3      1088 PP      -0.265900
   9787 H21        12.8000   50.1400   65.1300 hc      1088 PP       0.001900
   9788 H22        11.8700   50.6600   66.4500 hc      1088 PP       0.001900
   9789 H1         11.4400   48.2500   64.7500 hc      1088 PP       0.001800
   9790 HB1        12.2400   48.6100   67.7500 hc      1088 PP       0.063200
   9791 HB2        12.2000   47.0400   67.0400 hc      1088 PP       0.063200
   9792 HB3        13.3200   48.2900   66.2800 hc      1088 PP       0.063200
   9793 C2          9.8900   48.4700   66.2000 c3      1089 PP      -0.006100
   9794 C1          9.4600   47.0300   66.2300 c3      1089 PP       0.076800
   9795 CB          7.9800   46.9200   66.6000 c3      1089 PP      -0.265900
   9796 H21         9.7200   48.9400   67.1800 hc      1089 PP       0.001900
   9797 H22         9.2500   48.9500   65.4500 hc      1089 PP       0.001900
   9798 H1          9.9200   46.4400   67.0300 hc      1089 PP       0.001800
   9799 HB1         7.8100   47.3400   67.6000 hc      1089 PP       0.063200
   9800 HB2         7.4700   47.6000   65.9000 hc      1089 PP       0.063200
   9801 HB3         7.5100   45.9300   66.6000 hc      1089 PP       0.063200
   9802 C2          9.7200   46.2000   64.9500 c3      1090 PP      -0.006100
   9803 C1          9.8100   44.6300   65.0200 c3      1090 PP       0.076800
   9804 CB          9.3600   44.0100   63.6800 c3      1090 PP      -0.265900
   9805 H21         9.0300   46.6000   64.2000 hc      1090 PP       0.001900
   9806 H22        10.6900   46.5300   64.5500 hc      1090 PP       0.001900
   9807 H1          9.0300   44.3300   65.7400 hc      1090 PP       0.001800
   9808 HB1        10.0400   44.2300   62.8500 hc      1090 PP       0.063200
   9809 HB2         9.3200   42.9200   63.6500 hc      1090 PP       0.063200
   9810 HB3         8.3300   44.3000   63.4500 hc      1090 PP       0.063200
   9811 C2         11.1700   44.1500   65.5600 c3      1091 PP      -0.006100
   9812 C1         11.5400   42.6500   65.5900 c3      1091 PP       0.076800
   9813 CB         12.8200   42.3900   66.4800 c3      1091 PP      -0.265900
   9814 H21        11.9400   44.6500   64.9500 hc      1091 PP       0.001900
   9815 H22        11.2600   44.4100   66.6300 hc      1091 PP       0.001900
   9816 H1         11.7600   42.3900   64.5400 hc      1091 PP       0.001800
   9817 HB1        12.9000   43.0400   67.3600 hc      1091 PP       0.063200
   9818 HB2        12.9400   41.3700   66.8600 hc      1091 PP       0.063200
   9819 HB3        13.6800   42.5400   65.8200 hc      1091 PP       0.063200
   9820 C2         10.3200   41.7800   66.0600 c3      1092 PP      -0.006100
   9821 C1         10.3700   40.1700   65.8400 c3      1092 PP       0.076800
   9822 CB          9.1300   39.6200   66.5800 c3      1092 PP      -0.265900
   9823 H21        10.2700   41.9600   67.1500 hc      1092 PP       0.001900
   9824 H22         9.3900   42.2300   65.6800 hc      1092 PP       0.001900
   9825 H1         11.2300   39.7300   66.3700 hc      1092 PP       0.001800
   9826 HB1         8.8100   40.3600   67.3200 hc      1092 PP       0.063200
   9827 HB2         8.2800   39.5700   65.9000 hc      1092 PP       0.063200
   9828 HB3         9.3400   38.5900   66.9000 hc      1092 PP       0.063200
   9829 C2         10.4800   39.8100   64.2800 c3      1093 PP      -0.006100
   9830 C1         10.2900   38.3000   63.9300 c3      1093 PP       0.076800
   9831 CB          9.4300   38.1400   62.7400 c3      1093 PP      -0.265900
   9832 H21         9.6600   40.4000   63.8400 hc      1093 PP       0.001900
   9833 H22        11.4500   40.2200   63.9500 hc      1093 PP       0.001900
   9834 H1          9.6900   37.9100   64.7600 hc      1093 PP       0.001800
   9835 HB1         8.4900   38.6600   62.9200 hc      1093 PP       0.063200
   9836 HB2         9.9500   38.6100   61.9000 hc      1093 PP       0.063200
   9837 HB3         9.1000   37.1000   62.6000 hc      1093 PP       0.063200
   9838 C2         11.6200   37.4800   63.9600 c3      1094 PP      -0.006100
   9839 C1         12.5700   37.3600   65.2300 c3      1094 PP       0.076800
   9840 CB         11.9400   36.6900   66.4300 c3      1094 PP      -0.265900
   9841 H21        11.4200   36.4900   63.5600 hc      1094 PP       0.001900
   9842 H22        12.2600   37.9600   63.2100 hc      1094 PP       0.001900
   9843 H1         12.8600   38.3800   65.5200 hc      1094 PP       0.001800
   9844 HB1        10.8500   36.7800   66.3400 hc      1094 PP       0.063200
   9845 HB2        12.1400   35.6100   66.4300 hc      1094 PP       0.063200
   9846 HB3        12.2100   37.0900   67.4100 hc      1094 PP       0.063200
   9847 C2         13.9300   36.6100   64.8300 c3      1095 PP      -0.006100
   9848 C1         14.9500   36.5500   66.0200 c3      1095 PP       0.076800
   9849 CB         16.2200   35.7400   65.5600 c3      1095 PP      -0.265900
   9850 H21        13.8000   35.6000   64.4200 hc      1095 PP       0.001900
   9851 H22        14.3800   37.1500   63.9900 hc      1095 PP       0.001900
   9852 H1         14.5100   35.9800   66.8500 hc      1095 PP       0.001800
   9853 HB1        15.9000   34.7000   65.4300 hc      1095 PP       0.063200
   9854 HB2        16.7200   36.1500   64.6700 hc      1095 PP       0.063200
   9855 HB3        16.9500   35.8000   66.3800 hc      1095 PP       0.063200
   9856 C2         15.4300   38.0000   66.4800 c3      1096 PP      -0.006100
   9857 C1         16.3000   38.7600   65.4500 c3      1096 PP       0.076800
   9858 CB         15.6900   40.1700   65.2500 c3      1096 PP      -0.265900
   9859 H21        14.5200   38.5700   66.7200 hc      1096 PP       0.001900
   9860 H22        15.9500   37.9200   67.4400 hc      1096 PP       0.001900
   9861 H1         16.3200   38.2500   64.4800 hc      1096 PP       0.001800
   9862 HB1        14.6600   39.9800   64.9200 hc      1096 PP       0.063200
   9863 HB2        15.7000   40.7000   66.2100 hc      1096 PP       0.063200
   9864 HB3        16.2700   40.7700   64.5400 hc      1096 PP       0.063200
   9865 C2         17.7400   38.8900   66.0600 c3      1097 PP      -0.006100
   9866 C1         18.9300   39.1200   65.1000 c3      1097 PP       0.076800
   9867 CB         19.0500   38.1600   63.8700 c3      1097 PP      -0.265900
   9868 H21        17.7200   39.5800   66.9200 hc      1097 PP       0.001900
   9869 H22        17.9300   37.9100   66.5000 hc      1097 PP       0.001900
   9870 H1         19.8200   38.8900   65.7000 hc      1097 PP       0.001800
   9871 HB1        18.8100   37.1200   64.1100 hc      1097 PP       0.063200
   9872 HB2        18.4100   38.3900   63.0000 hc      1097 PP       0.063200
   9873 HB3        20.1100   38.0800   63.6000 hc      1097 PP       0.063200
   9874 C2         19.2000   40.6100   64.7500 c3      1098 PP      -0.006100
   9875 C1         19.4500   41.5800   65.9500 c3      1098 PP       0.076800
   9876 CB         20.8300   41.4500   66.5500 c3      1098 PP      -0.265900
   9877 H21        20.1000   40.7300   64.1400 hc      1098 PP       0.001900
   9878 H22        18.4000   40.9900   64.1000 hc      1098 PP       0.001900
   9879 H1         18.6500   41.6000   66.7000 hc      1098 PP       0.001800
   9880 HB1        21.5000   41.4100   65.6800 hc      1098 PP       0.063200
   9881 HB2        21.1800   42.2600   67.2000 hc      1098 PP       0.063200
   9882 HB3        20.9500   40.4800   67.0400 hc      1098 PP       0.063200
   9883 C2         19.4000   42.9800   65.4100 c3      1099 PP      -0.006100
   9884 C1         17.9300   43.5500   65.2700 c3      1099 PP       0.076800
   9885 CB         17.6100   44.4500   66.5100 c3      1099 PP      -0.265900
   9886 H21        19.8500   43.6300   66.1700 hc      1099 PP       0.001900
   9887 H22        19.9800   43.0800   64.4800 hc      1099 PP       0.001900
   9888 H1         17.2600   42.6800   65.2100 hc      1099 PP       0.001800
   9889 HB1        17.8700   43.9600   67.4600 hc      1099 PP       0.063200
   9890 HB2        18.1800   45.3900   66.4800 hc      1099 PP       0.063200
   9891 HB3        16.5300   44.6400   66.4300 hc      1099 PP       0.063200
   9892 C2         17.8200   44.3700   63.9600 c3      1100 PP      -0.006100
   9893 C1         17.9700   43.6100   62.6600 c3      1100 PP       0.076800
   9894 CB         16.6800   42.8500   62.4400 c3      1100 PP      -0.265900
   9895 H21        16.8600   44.8900   63.9000 hc      1100 PP       0.001900
   9896 H22        18.5700   45.1700   63.9500 hc      1100 PP       0.001900
   9897 H1         18.7400   42.8400   62.8300 hc      1100 PP       0.001800
   9898 HB1        16.9000   41.9700   61.8200 hc      1100 PP       0.063200
   9899 HB2        16.2400   42.4400   63.3600 hc      1100 PP       0.063200
   9900 HB3        15.9300   43.4100   61.8700 hc      1100 PP       0.063200
   9901 C2         18.3000   44.5000   61.4500 c3      1101 PP      -0.006100
   9902 C1         18.7200   43.9000   60.0900 c3      1101 PP       0.076800
   9903 CB         18.0800   44.6400   58.8800 c3      1101 PP      -0.265900
   9904 H21        17.4200   45.1500   61.4200 hc      1101 PP       0.001900
   9905 H22        19.1000   45.2000   61.7200 hc      1101 PP       0.001900
   9906 H1         18.2400   42.9100   60.0700 hc      1101 PP       0.001800
   9907 HB1        18.3200   45.7000   59.0100 hc      1101 PP       0.063200
   9908 HB2        18.5400   44.3200   57.9400 hc      1101 PP       0.063200
   9909 HB3        16.9900   44.5000   58.8300 hc      1101 PP       0.063200
   9910 C2         20.2100   43.7300   59.8700 c3      1102 PP      -0.006100
   9911 C1         20.9000   42.7200   60.8800 c3      1102 PP       0.076800
   9912 CB         20.2400   41.2900   60.8000 c3      1102 PP      -0.265900
   9913 H21        20.4200   43.4600   58.8300 hc      1102 PP       0.001900
   9914 H22        20.6400   44.7300   60.0600 hc      1102 PP       0.001900
   9915 H1         20.7700   43.1200   61.8900 hc      1102 PP       0.001800
   9916 HB1        19.2300   41.1700   61.2200 hc      1102 PP       0.063200
   9917 HB2        20.2200   40.9800   59.7500 hc      1102 PP       0.063200
   9918 HB3        20.8800   40.5200   61.2600 hc      1102 PP       0.063200
   9919 C2         22.4600   42.6400   60.5700 c3      1103 PP      -0.006100
   9920 C1         23.4000   43.9200   60.7300 c3      1103 PP       0.076800
   9921 CB         23.1800   44.5100   62.1900 c3      1103 PP      -0.265900
   9922 H21        22.8500   41.8500   61.2200 hc      1103 PP       0.001900
   9923 H22        22.4800   42.1800   59.5800 hc      1103 PP       0.001900
   9924 H1         22.9700   44.6200   60.0100 hc      1103 PP       0.001800
   9925 HB1        23.9100   44.0300   62.8600 hc      1103 PP       0.063200
   9926 HB2        23.3700   45.5900   62.0800 hc      1103 PP       0.063200
   9927 HB3        22.1800   44.5000   62.6300 hc      1103 PP       0.063200
   9928 C2         24.8300   43.5200   60.3800 c3      1104 PP      -0.006100
   9929 C1         25.8300   44.6800   59.9600 c3      1104 PP       0.076800
   9930 CB         25.1300   45.7600   59.1600 c3      1104 PP      -0.265900
   9931 H21        25.1700   42.8600   61.2000 hc      1104 PP       0.001900
   9932 H22        24.7000   42.8100   59.5500 hc      1104 PP       0.001900
   9933 H1         26.4900   44.1300   59.2800 hc      1104 PP       0.001800
   9934 HB1        25.8700   46.5000   58.8300 hc      1104 PP       0.063200
   9935 HB2        24.5500   45.3400   58.3400 hc      1104 PP       0.063200
   9936 HB3        24.4400   46.2600   59.8500 hc      1104 PP       0.063200
   9937 C2         26.7500   45.0800   61.1400 c3      1105 PP      -0.006100
   9938 C1         28.1700   45.5600   60.7600 c3      1105 PP       0.076800
   9939 CB         28.8900   46.4400   61.8400 c3      1105 PP      -0.265900
   9940 H21        26.1800   45.8900   61.6100 hc      1105 PP       0.001900
   9941 H22        26.7700   44.2700   61.8800 hc      1105 PP       0.001900
   9942 H1         28.0300   46.1700   59.8700 hc      1105 PP       0.001800
   9943 HB1        29.8300   46.8800   61.4800 hc      1105 PP       0.063200
   9944 HB2        28.2600   47.2600   62.2100 hc      1105 PP       0.063200
   9945 HB3        29.0300   45.7600   62.6900 hc      1105 PP       0.063200
   9946 C2         29.0000   44.3000   60.3700 c3      1106 PP      -0.006100
   9947 C1         30.5400   44.5200   60.2300 c3      1106 PP       0.076800
   9948 CB         31.4600   43.2500   60.2500 c3      1106 PP      -0.265900
   9949 H21        28.9300   43.4400   61.0600 hc      1106 PP       0.001900
   9950 H22        28.6300   43.8000   59.4700 hc      1106 PP       0.001900
   9951 H1         30.9100   45.1600   61.0500 hc      1106 PP       0.001800
   9952 HB1        32.3900   43.3300   59.6800 hc      1106 PP       0.063200
   9953 HB2        31.7000   43.0400   61.3000 hc      1106 PP       0.063200
   9954 HB3        30.9400   42.3500   59.9000 hc      1106 PP       0.063200
   9955 C2         30.9100   45.3800   59.0300 c3      1107 PP      -0.006100
   9956 C1         30.7900   44.6200   57.6600 c3      1107 PP       0.076800
   9957 CB         30.0000   45.5800   56.5400 c3      1107 PP      -0.265900
   9958 H21        30.3000   46.2900   58.9900 hc      1107 PP       0.001900
   9959 H22        31.9700   45.6400   59.1500 hc      1107 PP       0.001900
   9960 H1         30.1600   43.7300   57.7300 hc      1107 PP       0.001800
   9961 HB1        30.5500   46.5100   56.4000 hc      1107 PP       0.063200
   9962 HB2        29.9600   45.0900   55.5600 hc      1107 PP       0.063200
   9963 HB3        28.9600   45.7400   56.8500 hc      1107 PP       0.063200
   9964 C2         32.1500   44.2900   57.0600 c3      1108 PP      -0.006100
   9965 C1         32.0700   43.3100   55.8600 c3      1108 PP       0.076800
   9966 CB         32.6600   43.8900   54.5500 c3      1108 PP      -0.265900
   9967 H21        32.5600   45.2500   56.7500 hc      1108 PP       0.001900
   9968 H22        32.8500   43.7900   57.7400 hc      1108 PP       0.001900
   9969 H1         31.0200   43.0500   55.6600 hc      1108 PP       0.001800
   9970 HB1        32.2100   44.8800   54.3700 hc      1108 PP       0.063200
   9971 HB2        33.7300   44.1300   54.6200 hc      1108 PP       0.063200
   9972 HB3        32.3700   43.2200   53.7300 hc      1108 PP       0.063200
   9973 C2         32.8200   41.9300   56.0800 c3      1109 PP      -0.006100
   9974 C1         32.2700   40.9500   57.2000 c3      1109 PP       0.076800
   9975 CB         30.8500   40.5300   56.9500 c3      1109 PP      -0.265900
   9976 H21        32.8900   41.4300   55.1000 hc      1109 PP       0.001900
   9977 H22        33.8600   42.1600   56.3400 hc      1109 PP       0.001900
   9978 H1         32.3300   41.4200   58.2000 hc      1109 PP       0.001800
   9979 HB1        30.2000   41.3600   56.6500 hc      1109 PP       0.063200
   9980 HB2        30.8400   39.8900   56.0600 hc      1109 PP       0.063200
   9981 HB3        30.5000   39.9600   57.8200 hc      1109 PP       0.063200
   9982 C2         33.1700   39.6700   57.3700 c3      1110 PP      -0.006100
   9983 C1         34.2900   39.8700   58.4100 c3      1110 PP       0.076800
   9984 CB         34.8700   38.5400   58.7700 c3      1110 PP      -0.265900
   9985 H21        33.6300   39.2900   56.4500 hc      1110 PP       0.001900
   9986 H22        32.4700   38.9000   57.7200 hc      1110 PP       0.001900
   9987 H1         35.0000   40.6600   58.1000 hc      1110 PP       0.001800
   9988 HB1        35.6000   38.8100   59.5500 hc      1110 PP       0.063200
   9989 HB2        34.2400   37.8000   59.2900 hc      1110 PP       0.063200
   9990 HB3        35.3200   38.0400   57.9100 hc      1110 PP       0.063200
   9991 C2         11.8300    1.3500   55.4200 c3      1111 PP      -0.006100
   9992 C1         12.1700    1.3600   56.9400 c3      1111 PP       0.076800
   9993 CB         12.4500   -0.0900   57.4400 c3      1111 PP      -0.265900
   9994 H21        11.2400    0.5000   55.0500 hc      1111 PP       0.001900
   9995 H22        11.3300    2.2200   54.9800 hc      1111 PP       0.001900
   9996 H1         11.3000    1.7200   57.5100 hc      1111 PP       0.001800
   9997 HB1        13.2000   -0.6000   56.8400 hc      1111 PP       0.063200
   9998 HB2        12.8100   -0.0500   58.4800 hc      1111 PP       0.063200
   9999 HB3        11.5500   -0.7100   57.3600 hc      1111 PP       0.063200
  10000 C2         13.3800    2.3800   57.2900 c3      1112 PP      -0.006100
  10001 C1         14.8100    2.0000   56.9200 c3      1112 PP       0.076800
  10002 CB         15.1000    2.0300   55.3800 c3      1112 PP      -0.265900
  10003 H21        13.1400    3.3600   56.8600 hc      1112 PP       0.001900
  10004 H22        13.3300    2.5000   58.3800 hc      1112 PP       0.001900
  10005 H1         14.9900    0.9500   57.2000 hc      1112 PP       0.001800
  10006 HB1        14.9100    1.1100   54.8200 hc      1112 PP       0.063200
  10007 HB2        14.4600    2.8000   54.9400 hc      1112 PP       0.063200
  10008 HB3        16.1600    2.2500   55.1800 hc      1112 PP       0.063200
  10009 C2         15.9000    2.7900   57.5900 c3      1113 PP      -0.006100
  10010 C1         15.8300    2.9300   59.2100 c3      1113 PP       0.076800
  10011 CB         15.6100    1.5700   59.8300 c3      1113 PP      -0.265900
  10012 H21        16.7900    2.2000   57.3700 hc      1113 PP       0.001900
  10013 H22        16.0300    3.8200   57.2300 hc      1113 PP       0.001900
  10014 H1         15.0300    3.6300   59.4700 hc      1113 PP       0.001800
  10015 HB1        14.6100    1.2200   59.5600 hc      1113 PP       0.063200
  10016 HB2        16.3700    0.9200   59.3900 hc      1113 PP       0.063200
  10017 HB3        15.7100    1.6400   60.9200 hc      1113 PP       0.063200
  10018 C2         17.1100    3.6200   59.8800 c3      1114 PP      -0.006100
  10019 C1         16.8600    5.0000   60.6200 c3      1114 PP       0.076800
  10020 CB         16.1800    4.7500   61.9700 c3      1114 PP      -0.265900
  10021 H21        17.6300    2.9100   60.5300 hc      1114 PP       0.001900
  10022 H22        17.7800    3.8700   59.0400 hc      1114 PP       0.001900
  10023 H1         16.3600    5.6900   59.9300 hc      1114 PP       0.001800
  10024 HB1        15.1700    4.3700   61.7800 hc      1114 PP       0.063200
  10025 HB2        16.7600    4.0600   62.6000 hc      1114 PP       0.063200
  10026 HB3        16.0700    5.6900   62.5300 hc      1114 PP       0.063200
  10027 C2         18.2600    5.6200   60.8700 c3      1115 PP      -0.006100
  10028 C1         18.3700    7.0200   61.4100 c3      1115 PP       0.076800
  10029 CB         19.8100    7.3600   61.7700 c3      1115 PP      -0.265900
  10030 H21        18.8200    4.9400   61.5200 hc      1115 PP       0.001900
  10031 H22        18.9200    5.4800   60.0000 hc      1115 PP       0.001900
  10032 H1         17.7200    7.0300   62.2900 hc      1115 PP       0.001800
  10033 HB1        20.3500    6.5900   62.3200 hc      1115 PP       0.063200
  10034 HB2        20.4700    7.4200   60.8900 hc      1115 PP       0.063200
  10035 HB3        19.8500    8.2800   62.3600 hc      1115 PP       0.063200
  10036 C2         17.8700    8.0700   60.3700 c3      1116 PP      -0.006100
  10037 C1         17.0400    9.2800   61.0000 c3      1116 PP       0.076800
  10038 CB         17.7600   10.5700   61.5200 c3      1116 PP      -0.265900
  10039 H21        18.7400    8.6700   60.0500 hc      1116 PP       0.001900
  10040 H22        17.4400    7.6900   59.4400 hc      1116 PP       0.001900
  10041 H1         16.6900    8.7700   61.9100 hc      1116 PP       0.001800
  10042 HB1        17.1000   11.0400   62.2600 hc      1116 PP       0.063200
  10043 HB2        18.5400   10.2300   62.2100 hc      1116 PP       0.063200
  10044 HB3        18.2000   11.2400   60.7700 hc      1116 PP       0.063200
  10045 C2         15.8200    9.8600   60.1900 c3      1117 PP      -0.006100
  10046 C1         14.8600    8.9000   59.4900 c3      1117 PP       0.076800
  10047 CB         14.4000    7.6900   60.3200 c3      1117 PP      -0.265900
  10048 H21        15.2600   10.5700   60.8200 hc      1117 PP       0.001900
  10049 H22        16.2300   10.5500   59.4500 hc      1117 PP       0.001900
  10050 H1         15.5200    8.4500   58.7300 hc      1117 PP       0.001800
  10051 HB1        13.7700    8.0700   61.1300 hc      1117 PP       0.063200
  10052 HB2        13.7100    7.0300   59.7800 hc      1117 PP       0.063200
  10053 HB3        15.2400    7.2300   60.8500 hc      1117 PP       0.063200
  10054 C2         13.6600    9.6200   58.7800 c3      1118 PP      -0.006100
  10055 C1         12.4800    8.8900   58.1100 c3      1118 PP       0.076800
  10056 CB         11.3700    9.9300   57.6700 c3      1118 PP      -0.265900
  10057 H21        13.1200   10.2800   59.4800 hc      1118 PP       0.001900
  10058 H22        14.0800   10.3000   58.0400 hc      1118 PP       0.001900
  10059 H1         12.0300    8.2700   58.9000 hc      1118 PP       0.001800
  10060 HB1        10.4400    9.5000   57.2900 hc      1118 PP       0.063200
  10061 HB2        11.0800   10.5600   58.5200 hc      1118 PP       0.063200
  10062 HB3        11.7500   10.4700   56.8000 hc      1118 PP       0.063200
  10063 C2         13.0700    8.1400   56.8700 c3      1119 PP      -0.006100
  10064 C1         12.0100    7.3900   56.0200 c3      1119 PP       0.076800
  10065 CB         12.4500    6.9000   54.5800 c3      1119 PP      -0.265900
  10066 H21        13.5100    8.8800   56.1900 hc      1119 PP       0.001900
  10067 H22        13.8100    7.4100   57.1900 hc      1119 PP       0.001900
  10068 H1         11.2300    8.1200   55.7700 hc      1119 PP       0.001800
  10069 HB1        12.4600    7.7700   53.9100 hc      1119 PP       0.063200
  10070 HB2        13.4000    6.3600   54.5400 hc      1119 PP       0.063200
  10071 HB3        11.7500    6.2200   54.0800 hc      1119 PP       0.063200
  10072 C2         11.3300    6.3400   56.9000 c3      1120 PP      -0.006100
  10073 C1         10.2900    5.3400   56.1400 c3      1120 PP       0.076800
  10074 CB          9.8700    4.3200   57.1900 c3      1120 PP      -0.265900
  10075 H21        12.1500    5.7000   57.2300 hc      1120 PP       0.001900
  10076 H22        10.8100    6.7600   57.7700 hc      1120 PP       0.001900
  10077 H1         10.9200    4.8200   55.4100 hc      1120 PP       0.001800
  10078 HB1         9.0600    4.6700   57.8300 hc      1120 PP       0.063200
  10079 HB2         9.4500    3.4300   56.7100 hc      1120 PP       0.063200
  10080 HB3        10.7500    4.0400   57.7900 hc      1120 PP       0.063200
  10081 C2          9.1100    6.0800   55.4300 c3      1121 PP      -0.006100
  10082 C1          8.0100    5.2400   54.8100 c3      1121 PP       0.076800
  10083 CB          6.9900    6.1800   54.0900 c3      1121 PP      -0.265900
  10084 H21         8.5700    6.7400   56.1100 hc      1121 PP       0.001900
  10085 H22         9.6000    6.7600   54.7100 hc      1121 PP       0.001900
  10086 H1          7.4500    4.7800   55.6300 hc      1121 PP       0.001800
  10087 HB1         7.3600    7.2000   53.8900 hc      1121 PP       0.063200
  10088 HB2         6.7000    5.7700   53.1200 hc      1121 PP       0.063200
  10089 HB3         6.0400    6.3100   54.6200 hc      1121 PP       0.063200
  10090 C2          8.3900    4.1500   53.8300 c3      1122 PP      -0.006100
  10091 C1          7.6600    2.8100   53.9900 c3      1122 PP       0.076800
  10092 CB          6.0700    2.9300   53.8600 c3      1122 PP      -0.265900
  10093 H21         8.3900    4.5000   52.7900 hc      1122 PP       0.001900
  10094 H22         9.4600    3.9300   53.8100 hc      1122 PP       0.001900
  10095 H1          7.8200    2.4600   55.0200 hc      1122 PP       0.001800
  10096 HB1         5.5500    3.4900   54.6500 hc      1122 PP       0.063200
  10097 HB2         5.8900    3.3900   52.8800 hc      1122 PP       0.063200
  10098 HB3         5.6300    1.9300   53.8700 hc      1122 PP       0.063200
  10099 C2          8.2600    1.7000   53.0100 c3      1123 PP      -0.006100
  10100 C1          7.6700    1.6700   51.5300 c3      1123 PP       0.076800
  10101 CB          7.7300    2.9700   50.7100 c3      1123 PP      -0.265900
  10102 H21         9.3500    1.6500   53.0000 hc      1123 PP       0.001900
  10103 H22         8.0100    0.7300   53.4500 hc      1123 PP       0.001900
  10104 H1          6.6100    1.3800   51.5400 hc      1123 PP       0.001800
  10105 HB1         6.9600    3.6300   51.1200 hc      1123 PP       0.063200
  10106 HB2         8.7000    3.4800   50.7900 hc      1123 PP       0.063200
  10107 HB3         7.4800    2.7600   49.6600 hc      1123 PP       0.063200
  10108 C2          8.3600   80.5100   50.7200 c3      1124 PP      -0.006100
  10109 C1          8.6300   79.0700   51.4100 c3      1124 PP       0.076800
  10110 CB          7.3700   78.1700   51.5900 c3      1124 PP      -0.265900
  10111 H21         7.8100   80.4900   49.7700 hc      1124 PP       0.001900
  10112 H22         9.3600   80.9400   50.5200 hc      1124 PP       0.001900
  10113 H1          9.1600   79.1000   52.3700 hc      1124 PP       0.001800
  10114 HB1         6.9900   77.9700   50.5800 hc      1124 PP       0.063200
  10115 HB2         7.5500   77.3000   52.2300 hc      1124 PP       0.063200
  10116 HB3         6.7400   78.8400   52.2000 hc      1124 PP       0.063200
  10117 C2          9.6600   78.2500   50.4700 c3      1125 PP      -0.006100
  10118 C1         10.3500   76.9600   51.1100 c3      1125 PP       0.076800
  10119 CB          9.6400   75.7000   50.6500 c3      1125 PP      -0.265900
  10120 H21         9.2400   77.9900   49.4900 hc      1125 PP       0.001900
  10121 H22        10.4400   78.9700   50.1800 hc      1125 PP       0.001900
  10122 H1         10.1500   77.0000   52.1800 hc      1125 PP       0.001800
  10123 HB1         9.8500   74.7200   51.0800 hc      1125 PP       0.063200
  10124 HB2         8.5600   75.7900   50.8200 hc      1125 PP       0.063200
  10125 HB3         9.8000   75.6500   49.5600 hc      1125 PP       0.063200
  10126 C2         11.9200   76.8900   50.9900 c3      1126 PP      -0.006100
  10127 C1         12.7100   78.1800   51.5700 c3      1126 PP       0.076800
  10128 CB         12.8800   78.0600   53.1200 c3      1126 PP      -0.265900
  10129 H21        12.4200   75.9800   51.3500 hc      1126 PP       0.001900
  10130 H22        12.0900   76.8500   49.9000 hc      1126 PP       0.001900
  10131 H1         12.2400   79.0700   51.1400 hc      1126 PP       0.001800
  10132 HB1        11.9300   78.3300   53.6100 hc      1126 PP       0.063200
  10133 HB2        13.2000   77.0300   53.3200 hc      1126 PP       0.063200
  10134 HB3        13.5700   78.8100   53.5200 hc      1126 PP       0.063200
  10135 C2         14.1500   78.1300   50.8600 c3      1127 PP      -0.006100
  10136 C1         15.0200   79.3600   51.1900 c3      1127 PP       0.076800
  10137 CB         16.4700   79.0800   50.7800 c3      1127 PP      -0.265900
  10138 H21        14.6300   77.2200   51.2300 hc      1127 PP       0.001900
  10139 H22        14.1200   77.9900   49.7700 hc      1127 PP       0.001900
  10140 H1         15.0600   79.4100   52.2800 hc      1127 PP       0.001800
  10141 HB1        16.3900   78.8300   49.7200 hc      1127 PP       0.063200
  10142 HB2        17.1500   79.9500   50.7500 hc      1127 PP       0.063200
  10143 HB3        17.0700   78.3000   51.2700 hc      1127 PP       0.063200
  10144 C2         14.4800    0.7000   50.7200 c3      1128 PP      -0.006100
  10145 C1         14.5100    1.8700   51.7900 c3      1128 PP       0.076800
  10146 CB         15.9700    2.0800   52.2900 c3      1128 PP      -0.265900
  10147 H21        15.0700    0.9600   49.8300 hc      1128 PP       0.001900
  10148 H22        13.4500    0.5800   50.3800 hc      1128 PP       0.001900
  10149 H1         13.9200    1.4800   52.6300 hc      1128 PP       0.001800
  10150 HB1        16.6300    2.3000   51.4400 hc      1128 PP       0.063200
  10151 HB2        15.9300    2.9800   52.9100 hc      1128 PP       0.063200
  10152 HB3        16.5000    1.3200   52.8700 hc      1128 PP       0.063200
  10153 C2         13.9500    3.1700   51.1700 c3      1129 PP      -0.006100
  10154 C1         12.4300    3.2100   50.8500 c3      1129 PP       0.076800
  10155 CB         11.6700    3.0300   52.1900 c3      1129 PP      -0.265900
  10156 H21        14.2600    3.9300   51.8900 hc      1129 PP       0.001900
  10157 H22        14.5100    3.2800   50.2300 hc      1129 PP       0.001900
  10158 H1         12.1900    2.3600   50.2100 hc      1129 PP       0.001800
  10159 HB1        12.0500    3.5700   53.0700 hc      1129 PP       0.063200
  10160 HB2        10.6400    3.3900   52.0700 hc      1129 PP       0.063200
  10161 HB3        11.5900    1.9900   52.5200 hc      1129 PP       0.063200
  10162 C2         11.9400    4.5500   50.1500 c3      1130 PP      -0.006100
  10163 C1         12.3000    5.8400   50.9600 c3      1130 PP       0.076800
  10164 CB         13.4600    6.5800   50.1800 c3      1130 PP      -0.265900
  10165 H21        12.4600    4.5300   49.1900 hc      1130 PP       0.001900
  10166 H22        10.8600    4.5500   49.9500 hc      1130 PP       0.001900
  10167 H1         12.5900    5.4700   51.9500 hc      1130 PP       0.001800
  10168 HB1        13.7600    7.4800   50.7400 hc      1130 PP       0.063200
  10169 HB2        14.3700    6.0000   50.0600 hc      1130 PP       0.063200
  10170 HB3        13.1200    6.7700   49.1600 hc      1130 PP       0.063200
  10171 C2         11.0000    6.8200   51.2200 c3      1131 PP      -0.006100
  10172 C1         10.0900    7.2600   50.0200 c3      1131 PP       0.076800
  10173 CB          8.6100    6.8900   50.3700 c3      1131 PP      -0.265900
  10174 H21        10.3400    6.3100   51.9300 hc      1131 PP       0.001900
  10175 H22        11.5100    7.6400   51.7400 hc      1131 PP       0.001900
  10176 H1         10.3800    6.6700   49.1500 hc      1131 PP       0.001800
  10177 HB1         8.2800    7.0500   51.4000 hc      1131 PP       0.063200
  10178 HB2         7.8800    7.5100   49.8500 hc      1131 PP       0.063200
  10179 HB3         8.3200    5.8900   50.0300 hc      1131 PP       0.063200
  10180 C2         10.3600    8.7400   49.6200 c3      1132 PP      -0.006100
  10181 C1          9.7500    9.8100   50.6900 c3      1132 PP       0.076800
  10182 CB         10.9400   10.5500   51.3300 c3      1132 PP      -0.265900
  10183 H21        11.4400    8.9100   49.5500 hc      1132 PP       0.001900
  10184 H22         9.9800    8.9900   48.6200 hc      1132 PP       0.001900
  10185 H1          9.1400    9.3100   51.4600 hc      1132 PP       0.001800
  10186 HB1        10.7100   10.9200   52.3400 hc      1132 PP       0.063200
  10187 HB2        11.9100   10.0300   51.2700 hc      1132 PP       0.063200
  10188 HB3        11.0200   11.4500   50.7000 hc      1132 PP       0.063200
  10189 C2          8.7900   10.7400   49.9000 c3      1133 PP      -0.006100
  10190 C1          7.9900   11.6800   50.8500 c3      1133 PP       0.076800
  10191 CB          8.3800   13.1600   50.6800 c3      1133 PP      -0.265900
  10192 H21         9.4200   11.3000   49.2100 hc      1133 PP       0.001900
  10193 H22         8.0800   10.1200   49.3400 hc      1133 PP       0.001900
  10194 H1          8.2200   11.4900   51.9000 hc      1133 PP       0.001800
  10195 HB1         8.0500   13.7500   51.5500 hc      1133 PP       0.063200
  10196 HB2         9.4800   13.2000   50.6300 hc      1133 PP       0.063200
  10197 HB3         7.9200   13.6200   49.8000 hc      1133 PP       0.063200
  10198 C2          6.4800   11.4600   50.6800 c3      1134 PP      -0.006100
  10199 C1          5.8900   10.2500   51.3800 c3      1134 PP       0.076800
  10200 CB          6.0600   10.2800   52.9100 c3      1134 PP      -0.265900
  10201 H21         6.0000   12.3600   51.0900 hc      1134 PP       0.001900
  10202 H22         6.2000   11.4300   49.6200 hc      1134 PP       0.001900
  10203 H1          6.4100    9.3600   51.0000 hc      1134 PP       0.001800
  10204 HB1         5.6700   11.1700   53.4100 hc      1134 PP       0.063200
  10205 HB2         5.4800    9.5100   53.4200 hc      1134 PP       0.063200
  10206 HB3         7.1300   10.2100   53.1400 hc      1134 PP       0.063200
  10207 C2          4.3400   10.1500   50.9000 c3      1135 PP      -0.006100
  10208 C1          3.5300    8.9000   51.2900 c3      1135 PP       0.076800
  10209 CB          2.0500    8.9100   50.7700 c3      1135 PP      -0.265900
  10210 H21         3.8100   11.0000   51.3500 hc      1135 PP       0.001900
  10211 H22         4.2000   10.2700   49.8200 hc      1135 PP       0.001900
  10212 H1          3.4800    8.9600   52.3800 hc      1135 PP       0.001800
  10213 HB1         1.3200    8.7400   51.5800 hc      1135 PP       0.063200
  10214 HB2         1.7000    9.8800   50.4000 hc      1135 PP       0.063200
  10215 HB3         1.8700    8.1700   49.9800 hc      1135 PP       0.063200
  10216 C2          4.1900    7.5600   51.0400 c3      1136 PP      -0.006100
  10217 C1          3.4300    6.2700   51.5500 c3      1136 PP       0.076800
  10218 CB          4.0200    5.0200   50.8900 c3      1136 PP      -0.265900
  10219 H21         4.2600    7.5300   49.9500 hc      1136 PP       0.001900
  10220 H22         5.2200    7.6000   51.3900 hc      1136 PP       0.001900
  10221 H1          2.4100    6.2600   51.1700 hc      1136 PP       0.001800
  10222 HB1         3.7800    5.0100   49.8200 hc      1136 PP       0.063200
  10223 HB2         5.1100    5.0400   51.0400 hc      1136 PP       0.063200
  10224 HB3         3.6600    4.0900   51.3600 hc      1136 PP       0.063200
  10225 C2          3.3400    6.0800   53.0900 c3      1137 PP      -0.006100
  10226 C1          1.9700    5.6500   53.7200 c3      1137 PP       0.076800
  10227 CB          1.9000    4.0300   53.7300 c3      1137 PP      -0.265900
  10228 H21         4.0800    5.3400   53.4100 hc      1137 PP       0.001900
  10229 H22         3.7200    6.9900   53.5800 hc      1137 PP       0.001900
  10230 H1          1.1400    6.1200   53.1700 hc      1137 PP       0.001800
  10231 HB1         1.9200    3.6200   52.7100 hc      1137 PP       0.063200
  10232 HB2         2.7900    3.4900   54.0800 hc      1137 PP       0.063200
  10233 HB3         1.0600    3.5900   54.2900 hc      1137 PP       0.063200
  10234 C2          1.7500    6.1800   55.1800 c3      1138 PP      -0.006100
  10235 C1          1.0200    7.5600   55.3800 c3      1138 PP       0.076800
  10236 CB          0.7500    7.8500   56.8100 c3      1138 PP      -0.265900
  10237 H21         1.0100    5.5100   55.6500 hc      1138 PP       0.001900
  10238 H22         2.6600    6.0900   55.7700 hc      1138 PP       0.001900
  10239 H1          0.0500    7.4200   54.8700 hc      1138 PP       0.001800
  10240 HB1         1.6700    7.8000   57.4200 hc      1138 PP       0.063200
  10241 HB2         0.3600    8.8500   57.0400 hc      1138 PP       0.063200
  10242 HB3         0.0200    7.2100   57.3300 hc      1138 PP       0.063200
  10243 C2          1.7700    8.6900   54.7200 c3      1139 PP      -0.006100
  10244 C1          1.2000   10.1300   54.8500 c3      1139 PP       0.076800
  10245 CB          2.0500   11.0700   54.0300 c3      1139 PP      -0.265900
  10246 H21         2.8000    8.7500   55.1000 hc      1139 PP       0.001900
  10247 H22         1.7100    8.4000   53.6700 hc      1139 PP       0.001900
  10248 H1          1.3900   10.4500   55.8800 hc      1139 PP       0.001800
  10249 HB1         1.7500   11.0600   52.9800 hc      1139 PP       0.063200
  10250 HB2         1.9600   12.1100   54.3900 hc      1139 PP       0.063200
  10251 HB3         3.1000   10.7600   54.1200 hc      1139 PP       0.063200
  10252 C2         79.7100   10.2900   54.4500 c3      1140 PP      -0.006100
  10253 C1         79.0700   11.6000   54.7800 c3      1140 PP       0.076800
  10254 CB         77.5000   11.6900   54.6800 c3      1140 PP      -0.265900
  10255 H21        79.0800    9.5500   54.9600 hc      1140 PP       0.001900
  10256 H22        79.7200    9.9700   53.4000 hc      1140 PP       0.001900
  10257 H1         79.5900   12.4200   54.2900 hc      1140 PP       0.001800
  10258 HB1        77.1000   10.9400   55.3800 hc      1140 PP       0.063200
  10259 HB2        77.1000   12.6900   54.9300 hc      1140 PP       0.063200
  10260 HB3        77.1700   11.3700   53.6900 hc      1140 PP       0.063200
  10261 C2         69.0500   55.1300   66.5500 c3      1141 PP      -0.006100
  10262 C1         68.6700   53.9900   65.6800 c3      1141 PP       0.076800
  10263 CB         69.8100   53.4800   64.8500 c3      1141 PP      -0.265900
  10264 H21        69.9000   54.9100   67.2100 hc      1141 PP       0.001900
  10265 H22        69.4400   55.9500   65.9300 hc      1141 PP       0.001900
  10266 H1         67.9800   54.4100   64.9400 hc      1141 PP       0.001800
  10267 HB1        69.9300   54.0800   63.9300 hc      1141 PP       0.063200
  10268 HB2        70.8000   53.4100   65.3200 hc      1141 PP       0.063200
  10269 HB3        69.6500   52.4400   64.5200 hc      1141 PP       0.063200
  10270 C2         67.9500   52.8500   66.5200 c3      1142 PP      -0.006100
  10271 C1         67.4500   51.6500   65.7400 c3      1142 PP       0.076800
  10272 CB         66.6500   50.6900   66.6100 c3      1142 PP      -0.265900
  10273 H21        68.6300   52.4300   67.2800 hc      1142 PP       0.001900
  10274 H22        67.1700   53.4200   67.0500 hc      1142 PP       0.001900
  10275 H1         68.3400   51.0500   65.5000 hc      1142 PP       0.001800
  10276 HB1        67.1900   50.5900   67.5600 hc      1142 PP       0.063200
  10277 HB2        65.6300   51.0300   66.8500 hc      1142 PP       0.063200
  10278 HB3        66.6300   49.7200   66.1000 hc      1142 PP       0.063200
  10279 C2         66.7100   51.9700   64.4600 c3      1143 PP      -0.006100
  10280 C1         66.3100   50.7500   63.6200 c3      1143 PP       0.076800
  10281 CB         65.4300   51.2800   62.3500 c3      1143 PP      -0.265900
  10282 H21        65.8700   52.5800   64.8400 hc      1143 PP       0.001900
  10283 H22        67.2900   52.6200   63.7900 hc      1143 PP       0.001900
  10284 H1         65.6100   50.1000   64.1600 hc      1143 PP       0.001800
  10285 HB1        64.5700   51.8600   62.6900 hc      1143 PP       0.063200
  10286 HB2        66.1000   51.9700   61.8200 hc      1143 PP       0.063200
  10287 HB3        65.0300   50.4800   61.7100 hc      1143 PP       0.063200
  10288 C2         67.5800   49.9100   63.1500 c3      1144 PP      -0.006100
  10289 C1         67.3500   48.6400   62.2500 c3      1144 PP       0.076800
  10290 CB         68.3500   48.5900   61.0300 c3      1144 PP      -0.265900
  10291 H21        68.2800   50.5800   62.6300 hc      1144 PP       0.001900
  10292 H22        68.1900   49.6300   64.0200 hc      1144 PP       0.001900
  10293 H1         66.3400   48.8000   61.8600 hc      1144 PP       0.001800
  10294 HB1        68.3700   49.5400   60.4800 hc      1144 PP       0.063200
  10295 HB2        69.3700   48.5100   61.4100 hc      1144 PP       0.063200
  10296 HB3        68.1500   47.7100   60.4100 hc      1144 PP       0.063200
  10297 C2         67.3800   47.2500   63.0900 c3      1145 PP      -0.006100
  10298 C1         66.1000   47.1200   64.0400 c3      1145 PP       0.076800
  10299 CB         64.8600   47.0900   63.2300 c3      1145 PP      -0.265900
  10300 H21        67.4600   46.3600   62.4600 hc      1145 PP       0.001900
  10301 H22        68.2900   47.2200   63.7000 hc      1145 PP       0.001900
  10302 H1         66.2500   47.9800   64.7100 hc      1145 PP       0.001800
  10303 HB1        63.9300   46.9100   63.7800 hc      1145 PP       0.063200
  10304 HB2        64.6900   48.0700   62.7700 hc      1145 PP       0.063200
  10305 HB3        65.0100   46.3100   62.4800 hc      1145 PP       0.063200
  10306 C2         66.1800   45.7100   64.7700 c3      1146 PP      -0.006100
  10307 C1         67.4300   45.4800   65.7400 c3      1146 PP       0.076800
  10308 CB         67.7900   46.6000   66.7400 c3      1146 PP      -0.265900
  10309 H21        65.3500   45.6800   65.4900 hc      1146 PP       0.001900
  10310 H22        66.0100   44.9600   63.9900 hc      1146 PP       0.001900
  10311 H1         68.3400   45.3700   65.1500 hc      1146 PP       0.001800
  10312 HB1        68.1300   47.5400   66.2900 hc      1146 PP       0.063200
  10313 HB2        66.9900   46.8400   67.4500 hc      1146 PP       0.063200
  10314 HB3        68.6400   46.2700   67.3500 hc      1146 PP       0.063200
  10315 C2         67.3100   44.0600   66.4200 c3      1147 PP      -0.006100
  10316 C1         66.8700   42.8500   65.5100 c3      1147 PP       0.076800
  10317 CB         67.8000   42.7300   64.2900 c3      1147 PP      -0.265900
  10318 H21        68.3000   43.8400   66.8300 hc      1147 PP       0.001900
  10319 H22        66.6000   44.1000   67.2500 hc      1147 PP       0.001900
  10320 H1         65.8600   43.0300   65.1300 hc      1147 PP       0.001800
  10321 HB1        68.8300   42.7000   64.6400 hc      1147 PP       0.063200
  10322 HB2        67.5900   41.8500   63.6700 hc      1147 PP       0.063200
  10323 HB3        67.5900   43.5500   63.5900 hc      1147 PP       0.063200
  10324 C2         66.8400   41.4800   66.2900 c3      1148 PP      -0.006100
  10325 C1         66.2400   40.3000   65.4900 c3      1148 PP       0.076800
  10326 CB         66.4600   38.9400   66.2900 c3      1148 PP      -0.265900
  10327 H21        67.8300   41.2500   66.7100 hc      1148 PP       0.001900
  10328 H22        66.2600   41.6500   67.2000 hc      1148 PP       0.001900
  10329 H1         66.7700   40.1100   64.5500 hc      1148 PP       0.001800
  10330 HB1        67.5300   38.9000   66.5400 hc      1148 PP       0.063200
  10331 HB2        65.9000   38.8500   67.2200 hc      1148 PP       0.063200
  10332 HB3        66.3700   38.0100   65.7000 hc      1148 PP       0.063200
  10333 C2         64.7600   40.5500   65.0800 c3      1149 PP      -0.006100
  10334 C1         63.6500   40.4500   66.2100 c3      1149 PP       0.076800
  10335 CB         63.0700   41.8400   66.7200 c3      1149 PP      -0.265900
  10336 H21        64.5700   41.5700   64.7300 hc      1149 PP       0.001900
  10337 H22        64.5500   39.9100   64.2200 hc      1149 PP       0.001900
  10338 H1         64.0600   39.9400   67.0900 hc      1149 PP       0.001800
  10339 HB1        62.3700   42.2200   65.9600 hc      1149 PP       0.063200
  10340 HB2        62.5400   41.7200   67.6700 hc      1149 PP       0.063200
  10341 HB3        63.8600   42.5700   66.9300 hc      1149 PP       0.063200
  10342 C2         62.3900   39.5800   65.6900 c3      1150 PP      -0.006100
  10343 C1         61.4500   39.0000   66.8000 c3      1150 PP       0.076800
  10344 CB         60.2200   39.9000   67.1300 c3      1150 PP      -0.265900
  10345 H21        61.8100   40.2900   65.0800 hc      1150 PP       0.001900
  10346 H22        62.7100   38.7000   65.1200 hc      1150 PP       0.001900
  10347 H1         62.0700   38.9700   67.7100 hc      1150 PP       0.001800
  10348 HB1        59.7700   40.1200   66.1500 hc      1150 PP       0.063200
  10349 HB2        59.5200   39.3700   67.7900 hc      1150 PP       0.063200
  10350 HB3        60.5400   40.8800   67.5100 hc      1150 PP       0.063200
  10351 C2         61.0400   37.5500   66.5100 c3      1151 PP      -0.006100
  10352 C1         62.1200   36.4300   66.2400 c3      1151 PP       0.076800
  10353 CB         63.3000   36.4300   67.2300 c3      1151 PP      -0.265900
  10354 H21        60.4700   37.3100   67.4100 hc      1151 PP       0.001900
  10355 H22        60.4200   37.6300   65.6000 hc      1151 PP       0.001900
  10356 H1         62.5200   36.5300   65.2200 hc      1151 PP       0.001800
  10357 HB1        63.7700   35.4400   67.2700 hc      1151 PP       0.063200
  10358 HB2        64.0100   37.2600   67.1300 hc      1151 PP       0.063200
  10359 HB3        62.9000   36.6400   68.2300 hc      1151 PP       0.063200
  10360 C2         61.4500   34.9500   66.4100 c3      1152 PP      -0.006100
  10361 C1         60.1900   34.7800   65.4900 c3      1152 PP       0.076800
  10362 CB         60.6300   34.9400   64.0000 c3      1152 PP      -0.265900
  10363 H21        62.1500   34.1300   66.1900 hc      1152 PP       0.001900
  10364 H22        60.9800   34.8800   67.3900 hc      1152 PP       0.001900
  10365 H1         59.3600   35.4700   65.6900 hc      1152 PP       0.001800
  10366 HB1        59.7400   34.6300   63.4200 hc      1152 PP       0.063200
  10367 HB2        60.9100   35.9600   63.7400 hc      1152 PP       0.063200
  10368 HB3        61.4400   34.3200   63.6000 hc      1152 PP       0.063200
  10369 C2         59.5700   33.3600   65.6600 c3      1153 PP      -0.006100
  10370 C1         58.1100   33.1300   65.2300 c3      1153 PP       0.076800
  10371 CB         57.8100   31.5900   65.3000 c3      1153 PP      -0.265900
  10372 H21        60.2500   32.6700   65.1500 hc      1153 PP       0.001900
  10373 H22        59.5700   33.1100   66.7300 hc      1153 PP       0.001900
  10374 H1         58.1300   33.4200   64.1800 hc      1153 PP       0.001800
  10375 HB1        58.5600   31.2100   64.5900 hc      1153 PP       0.063200
  10376 HB2        58.0000   31.1000   66.2600 hc      1153 PP       0.063200
  10377 HB3        56.8100   31.3700   64.8800 hc      1153 PP       0.063200
  10378 C2         57.0200   33.8700   66.1200 c3      1154 PP      -0.006100
  10379 C1         55.4700   33.6800   65.8600 c3      1154 PP       0.076800
  10380 CB         54.8500   32.7600   66.8900 c3      1154 PP      -0.265900
  10381 H21        57.1900   33.4400   67.1200 hc      1154 PP       0.001900
  10382 H22        57.2600   34.9300   66.2800 hc      1154 PP       0.001900
  10383 H1         55.2300   33.4100   64.8200 hc      1154 PP       0.001800
  10384 HB1        54.7600   33.2600   67.8600 hc      1154 PP       0.063200
  10385 HB2        53.8200   32.5100   66.6200 hc      1154 PP       0.063200
  10386 HB3        55.3800   31.8000   66.8600 hc      1154 PP       0.063200
  10387 C2         54.8100   35.1200   65.8700 c3      1155 PP      -0.006100
  10388 C1         53.1900   35.1700   65.6600 c3      1155 PP       0.076800
  10389 CB         52.7300   36.5700   65.9200 c3      1155 PP      -0.265900
  10390 H21        55.0800   35.6900   66.7700 hc      1155 PP       0.001900
  10391 H22        55.2500   35.6500   65.0100 hc      1155 PP       0.001900
  10392 H1         52.7100   34.6400   66.5000 hc      1155 PP       0.001800
  10393 HB1        51.6500   36.6400   66.0900 hc      1155 PP       0.063200
  10394 HB2        53.1900   36.9900   66.8200 hc      1155 PP       0.063200
  10395 HB3        52.9900   37.2300   65.0800 hc      1155 PP       0.063200
  10396 C2         52.6500   34.6300   64.2700 c3      1156 PP      -0.006100
  10397 C1         51.1100   34.5000   64.1300 c3      1156 PP       0.076800
  10398 CB         50.6400   35.2600   62.8000 c3      1156 PP      -0.265900
  10399 H21        53.0300   35.2600   63.4600 hc      1156 PP       0.001900
  10400 H22        53.0700   33.6400   64.0800 hc      1156 PP       0.001900
  10401 H1         50.6700   34.9800   65.0100 hc      1156 PP       0.001800
  10402 HB1        49.5600   35.1300   62.7000 hc      1156 PP       0.063200
  10403 HB2        50.7800   36.3400   62.9000 hc      1156 PP       0.063200
  10404 HB3        51.2100   34.9700   61.9100 hc      1156 PP       0.063200
  10405 C2         50.7000   33.0000   64.0200 c3      1157 PP      -0.006100
  10406 C1         50.7900   32.1600   65.3400 c3      1157 PP       0.076800
  10407 CB         50.1300   32.8300   66.5700 c3      1157 PP      -0.265900
  10408 H21        49.6800   32.9400   63.6100 hc      1157 PP       0.001900
  10409 H22        51.2500   32.5200   63.2000 hc      1157 PP       0.001900
  10410 H1         51.8600   32.0700   65.5800 hc      1157 PP       0.001800
  10411 HB1        50.6500   33.7000   67.0100 hc      1157 PP       0.063200
  10412 HB2        49.1100   33.0500   66.2500 hc      1157 PP       0.063200
  10413 HB3        49.9800   32.0600   67.3200 hc      1157 PP       0.063200
  10414 C2         50.3400   30.7200   65.0800 c3      1158 PP      -0.006100
  10415 C1         50.9200   29.7100   66.1300 c3      1158 PP       0.076800
  10416 CB         49.8300   28.8000   66.7000 c3      1158 PP      -0.265900
  10417 H21        49.2500   30.7300   65.1700 hc      1158 PP       0.001900
  10418 H22        50.5600   30.4100   64.0500 hc      1158 PP       0.001900
  10419 H1         51.2300   30.2100   67.0600 hc      1158 PP       0.001800
  10420 HB1        49.4300   28.1600   65.9000 hc      1158 PP       0.063200
  10421 HB2        50.2500   28.1300   67.4600 hc      1158 PP       0.063200
  10422 HB3        49.0100   29.3400   67.1900 hc      1158 PP       0.063200
  10423 C2         52.1000   28.9000   65.5000 c3      1159 PP      -0.006100
  10424 C1         53.2700   29.5800   64.7500 c3      1159 PP       0.076800
  10425 CB         54.7500   29.2000   65.2000 c3      1159 PP      -0.265900
  10426 H21        52.6100   28.2800   66.2500 hc      1159 PP       0.001900
  10427 H22        51.6500   28.1900   64.8100 hc      1159 PP       0.001900
  10428 H1         53.3200   30.6600   64.9400 hc      1159 PP       0.001800
  10429 HB1        54.7800   28.9800   66.2800 hc      1159 PP       0.063200
  10430 HB2        55.0400   28.2100   64.8100 hc      1159 PP       0.063200
  10431 HB3        55.5500   29.9100   64.9600 hc      1159 PP       0.063200
  10432 C2         53.1600   29.3600   63.2400 c3      1160 PP      -0.006100
  10433 C1         54.3200   29.8500   62.3400 c3      1160 PP       0.076800
  10434 CB         53.9200   29.5300   60.8900 c3      1160 PP      -0.265900
  10435 H21        53.1000   28.2800   63.0600 hc      1160 PP       0.001900
  10436 H22        52.2700   29.8100   62.7800 hc      1160 PP       0.001900
  10437 H1         55.2100   29.2100   62.4900 hc      1160 PP       0.001800
  10438 HB1        54.7700   29.2700   60.2300 hc      1160 PP       0.063200
  10439 HB2        53.0300   28.9000   60.7200 hc      1160 PP       0.063200
  10440 HB3        53.5400   30.4700   60.4700 hc      1160 PP       0.063200
  10441 C2         54.6100   31.3600   62.5800 c3      1161 PP      -0.006100
  10442 C1         55.5400   31.9600   61.4800 c3      1161 PP       0.076800
  10443 CB         55.6600   33.6000   61.7100 c3      1161 PP      -0.265900
  10444 H21        53.7100   31.9800   62.5300 hc      1161 PP       0.001900
  10445 H22        55.0700   31.5300   63.5600 hc      1161 PP       0.001900
  10446 H1         54.9800   31.8800   60.5400 hc      1161 PP       0.001800
  10447 HB1        56.1600   33.8900   62.6400 hc      1161 PP       0.063200
  10448 HB2        56.2000   34.1000   60.9000 hc      1161 PP       0.063200
  10449 HB3        54.6100   33.9300   61.6700 hc      1161 PP       0.063200
  10450 C2         56.9000   31.3300   61.4700 c3      1162 PP      -0.006100
  10451 C1         58.2000   31.9800   60.7600 c3      1162 PP       0.076800
  10452 CB         59.5100   31.6100   61.5600 c3      1162 PP      -0.265900
  10453 H21        57.2300   31.1700   62.5000 hc      1162 PP       0.001900
  10454 H22        56.8400   30.2800   61.1400 hc      1162 PP       0.001900
  10455 H1         58.1600   33.0700   60.8100 hc      1162 PP       0.001800
  10456 HB1        60.4100   31.8800   61.0000 hc      1162 PP       0.063200
  10457 HB2        59.4000   32.1000   62.5300 hc      1162 PP       0.063200
  10458 HB3        59.5800   30.5400   61.7800 hc      1162 PP       0.063200
  10459 C2         58.4200   31.4900   59.2700 c3      1163 PP      -0.006100
  10460 C1         57.2200   31.7000   58.2600 c3      1163 PP       0.076800
  10461 CB         56.8400   33.1400   58.0000 c3      1163 PP      -0.265900
  10462 H21        59.2900   31.9900   58.8100 hc      1163 PP       0.001900
  10463 H22        58.6800   30.4300   59.3100 hc      1163 PP       0.001900
  10464 H1         56.3000   31.2800   58.6800 hc      1163 PP       0.001800
  10465 HB1        57.0500   33.7800   58.8700 hc      1163 PP       0.063200
  10466 HB2        57.4400   33.4700   57.1500 hc      1163 PP       0.063200
  10467 HB3        55.8000   33.2000   57.6800 hc      1163 PP       0.063200
  10468 C2         57.4800   30.8900   57.0400 c3      1164 PP      -0.006100
  10469 C1         56.4500   30.8800   55.9000 c3      1164 PP       0.076800
  10470 CB         56.8700   31.7100   54.6800 c3      1164 PP      -0.265900
  10471 H21        58.3800   31.3100   56.5800 hc      1164 PP       0.001900
  10472 H22        57.8000   29.8700   57.3000 hc      1164 PP       0.001900
  10473 H1         55.5700   31.4500   56.2300 hc      1164 PP       0.001800
  10474 HB1        55.9800   32.0500   54.1500 hc      1164 PP       0.063200
  10475 HB2        57.5900   32.5000   54.9500 hc      1164 PP       0.063200
  10476 HB3        57.5100   31.0600   54.0700 hc      1164 PP       0.063200
  10477 C2         55.9300   29.4800   55.4400 c3      1165 PP      -0.006100
  10478 C1         55.3500   28.4800   56.5000 c3      1165 PP       0.076800
  10479 CB         54.1000   29.1800   57.1900 c3      1165 PP      -0.265900
  10480 H21        55.1000   29.5200   54.7300 hc      1165 PP       0.001900
  10481 H22        56.7200   28.9500   54.9000 hc      1165 PP       0.001900
  10482 H1         56.1100   28.3000   57.2700 hc      1165 PP       0.001800
  10483 HB1        54.3200   30.2200   57.4600 hc      1165 PP       0.063200
  10484 HB2        53.3600   29.1800   56.3900 hc      1165 PP       0.063200
  10485 HB3        53.8300   28.6000   58.0800 hc      1165 PP       0.063200
  10486 C2         54.9700   27.2100   55.7600 c3      1166 PP      -0.006100
  10487 C1         54.3800   26.1300   56.6200 c3      1166 PP       0.076800
  10488 CB         53.6500   25.0500   55.7300 c3      1166 PP      -0.265900
  10489 H21        54.2400   27.5400   55.0000 hc      1166 PP       0.001900
  10490 H22        55.8500   26.7800   55.2800 hc      1166 PP       0.001900
  10491 H1         53.6100   26.6200   57.2200 hc      1166 PP       0.001800
  10492 HB1        53.1000   24.2800   56.2900 hc      1166 PP       0.063200
  10493 HB2        53.0600   25.5200   54.9400 hc      1166 PP       0.063200
  10494 HB3        54.2800   24.3600   55.1700 hc      1166 PP       0.063200
  10495 C2         55.2800   25.3400   57.5400 c3      1167 PP      -0.006100
  10496 C1         55.4400   25.9500   58.9400 c3      1167 PP       0.076800
  10497 CB         54.1200   25.5200   59.8300 c3      1167 PP      -0.265900
  10498 H21        54.8000   24.3600   57.6400 hc      1167 PP       0.001900
  10499 H22        56.3200   25.2200   57.1800 hc      1167 PP       0.001900
  10500 H1         55.4300   27.0500   58.9200 hc      1167 PP       0.001800
  10501 HB1        53.1700   25.5900   59.2900 hc      1167 PP       0.063200
  10502 HB2        54.2600   24.4800   60.1400 hc      1167 PP       0.063200
  10503 HB3        54.0600   26.0000   60.8200 hc      1167 PP       0.063200
  10504 C2         56.7700   25.3700   59.5400 c3      1168 PP      -0.006100
  10505 C1         57.5000   26.1800   60.6400 c3      1168 PP       0.076800
  10506 CB         57.9100   27.6000   60.0200 c3      1168 PP      -0.265900
  10507 H21        56.5100   24.4000   59.9700 hc      1168 PP       0.001900
  10508 H22        57.4900   25.1000   58.7600 hc      1168 PP       0.001900
  10509 H1         58.4500   25.6500   60.8100 hc      1168 PP       0.001800
  10510 HB1        58.4600   28.2000   60.7600 hc      1168 PP       0.063200
  10511 HB2        58.5700   27.5500   59.1400 hc      1168 PP       0.063200
  10512 HB3        57.0000   28.2000   59.9200 hc      1168 PP       0.063200
  10513 C2         56.8900   26.3100   62.0800 c3      1169 PP      -0.006100
  10514 C1         57.9200   26.2900   63.3100 c3      1169 PP       0.076800
  10515 CB         59.0200   27.4100   63.2000 c3      1169 PP      -0.265900
  10516 H21        56.2400   27.2000   62.1400 hc      1169 PP       0.001900
  10517 H22        56.1200   25.5500   62.2700 hc      1169 PP       0.001900
  10518 H1         58.3900   25.3000   63.3200 hc      1169 PP       0.001800
  10519 HB1        59.6200   27.5400   64.1100 hc      1169 PP       0.063200
  10520 HB2        59.7200   27.2000   62.3900 hc      1169 PP       0.063200
  10521 HB3        58.5100   28.3300   62.8900 hc      1169 PP       0.063200
  10522 C2         57.3000   26.3500   64.6600 c3      1170 PP      -0.006100
  10523 C1         58.1600   26.0900   65.8900 c3      1170 PP       0.076800
  10524 CB         58.3000   27.2500   66.9300 c3      1170 PP      -0.265900
  10525 H21        56.4700   25.6400   64.6800 hc      1170 PP       0.001900
  10526 H22        56.8600   27.3500   64.7700 hc      1170 PP       0.001900
  10527 H1         57.7800   25.1900   66.3800 hc      1170 PP       0.001800
  10528 HB1        57.4500   27.0900   67.6000 hc      1170 PP       0.063200
  10529 HB2        59.2100   27.2200   67.5400 hc      1170 PP       0.063200
  10530 HB3        58.2800   28.2500   66.4800 hc      1170 PP       0.063200
  10531 C2         52.1200   69.7600   60.7300 c3      1171 PP      -0.006100
  10532 C1         53.1000   71.0100   60.8400 c3      1171 PP       0.076800
  10533 CB         52.2800   72.2200   61.3000 c3      1171 PP      -0.265900
  10534 H21        51.1200   70.0300   60.3900 hc      1171 PP       0.001900
  10535 H22        51.9400   69.4900   61.7700 hc      1171 PP       0.001900
  10536 H1         53.4700   71.3500   59.8700 hc      1171 PP       0.001800
  10537 HB1        51.8600   72.1200   62.3100 hc      1171 PP       0.063200
  10538 HB2        52.8100   73.1800   61.2700 hc      1171 PP       0.063200
  10539 HB3        51.4700   72.3800   60.5800 hc      1171 PP       0.063200
  10540 C2         54.3400   70.6500   61.7200 c3      1172 PP      -0.006100
  10541 C1         55.4000   71.8200   61.8100 c3      1172 PP       0.076800
  10542 CB         56.3700   71.5700   62.9700 c3      1172 PP      -0.265900
  10543 H21        54.0200   70.3900   62.7400 hc      1172 PP       0.001900
  10544 H22        54.8600   69.7700   61.3300 hc      1172 PP       0.001900
  10545 H1         54.9700   72.8100   62.0000 hc      1172 PP       0.001800
  10546 HB1        55.7900   71.5000   63.9000 hc      1172 PP       0.063200
  10547 HB2        56.9400   70.6500   62.8400 hc      1172 PP       0.063200
  10548 HB3        57.0600   72.4100   63.0900 hc      1172 PP       0.063200
  10549 C2         56.1600   71.9400   60.4600 c3      1173 PP      -0.006100
  10550 C1         55.6900   73.1600   59.5300 c3      1173 PP       0.076800
  10551 CB         56.2600   74.5800   60.0900 c3      1173 PP      -0.265900
  10552 H21        57.2300   72.0500   60.6700 hc      1173 PP       0.001900
  10553 H22        56.2200   70.9700   59.9500 hc      1173 PP       0.001900
  10554 H1         54.6100   73.3100   59.6500 hc      1173 PP       0.001800
  10555 HB1        55.7400   74.8200   61.0300 hc      1173 PP       0.063200
  10556 HB2        57.3600   74.6200   60.1100 hc      1173 PP       0.063200
  10557 HB3        55.7700   75.3700   59.5100 hc      1173 PP       0.063200
  10558 C2         56.0200   72.8900   58.0200 c3      1174 PP      -0.006100
  10559 C1         55.1600   71.8300   57.2200 c3      1174 PP       0.076800
  10560 CB         54.5900   72.3800   55.8400 c3      1174 PP      -0.265900
  10561 H21        55.9600   73.8500   57.5000 hc      1174 PP       0.001900
  10562 H22        57.1000   72.7000   57.9800 hc      1174 PP       0.001900
  10563 H1         54.2800   71.5100   57.7800 hc      1174 PP       0.001800
  10564 HB1        53.8400   73.1600   56.0200 hc      1174 PP       0.063200
  10565 HB2        55.3600   72.8400   55.2300 hc      1174 PP       0.063200
  10566 HB3        54.0500   71.6000   55.2900 hc      1174 PP       0.063200
  10567 C2         56.0400   70.5000   56.9800 c3      1175 PP      -0.006100
  10568 C1         55.2400   69.1200   56.9500 c3      1175 PP       0.076800
  10569 CB         56.1400   67.9500   56.3800 c3      1175 PP      -0.265900
  10570 H21        56.7200   70.6000   56.1300 hc      1175 PP       0.001900
  10571 H22        56.7200   70.3700   57.8300 hc      1175 PP       0.001900
  10572 H1         54.2700   69.2100   56.4500 hc      1175 PP       0.001800
  10573 HB1        56.9200   67.6000   57.0700 hc      1175 PP       0.063200
  10574 HB2        55.4400   67.1300   56.1600 hc      1175 PP       0.063200
  10575 HB3        56.5800   68.2900   55.4400 hc      1175 PP       0.063200
  10576 C2         54.9600   68.7400   58.5000 c3      1176 PP      -0.006100
  10577 C1         54.1400   67.4600   58.6900 c3      1176 PP       0.076800
  10578 CB         54.2500   66.9400   60.2200 c3      1176 PP      -0.265900
  10579 H21        55.9500   68.7100   58.9800 hc      1176 PP       0.001900
  10580 H22        54.4400   69.5400   59.0400 hc      1176 PP       0.001900
  10581 H1         54.6300   66.6700   58.1000 hc      1176 PP       0.001800
  10582 HB1        54.1600   65.8500   60.2700 hc      1176 PP       0.063200
  10583 HB2        55.1400   67.1900   60.8200 hc      1176 PP       0.063200
  10584 HB3        53.3700   67.3000   60.7700 hc      1176 PP       0.063200
  10585 C2         52.6700   67.5800   58.1500 c3      1177 PP      -0.006100
  10586 C1         51.8600   66.3200   57.5800 c3      1177 PP       0.076800
  10587 CB         51.7900   65.2400   58.6500 c3      1177 PP      -0.265900
  10588 H21        52.0900   67.8700   59.0400 hc      1177 PP       0.001900
  10589 H22        52.6300   68.3600   57.3800 hc      1177 PP       0.001900
  10590 H1         52.4200   65.8900   56.7400 hc      1177 PP       0.001800
  10591 HB1        52.7400   64.7700   58.9300 hc      1177 PP       0.063200
  10592 HB2        51.4100   65.6700   59.5900 hc      1177 PP       0.063200
  10593 HB3        51.1000   64.4400   58.3600 hc      1177 PP       0.063200
  10594 C2         50.4600   66.8000   57.0300 c3      1178 PP      -0.006100
  10595 C1         49.3400   65.7700   56.6700 c3      1178 PP       0.076800
  10596 CB         48.1100   66.4800   56.0100 c3      1178 PP      -0.265900
  10597 H21        50.0300   67.4700   57.7800 hc      1178 PP       0.001900
  10598 H22        50.6900   67.5300   56.2400 hc      1178 PP       0.001900
  10599 H1         49.0900   65.3700   57.6600 hc      1178 PP       0.001800
  10600 HB1        48.4000   66.7500   54.9900 hc      1178 PP       0.063200
  10601 HB2        47.2500   65.8000   56.1100 hc      1178 PP       0.063200
  10602 HB3        47.9100   67.3300   56.6800 hc      1178 PP       0.063200
  10603 C2         49.8400   64.5400   55.8100 c3      1179 PP      -0.006100
  10604 C1         48.9500   63.3400   55.6400 c3      1179 PP       0.076800
  10605 CB         49.5700   62.4700   54.5800 c3      1179 PP      -0.265900
  10606 H21        50.1100   64.9200   54.8200 hc      1179 PP       0.001900
  10607 H22        50.8400   64.2400   56.1500 hc      1179 PP       0.001900
  10608 H1         47.9400   63.6900   55.4100 hc      1179 PP       0.001800
  10609 HB1        49.0800   61.5300   54.3200 hc      1179 PP       0.063200
  10610 HB2        49.3700   63.0200   53.6600 hc      1179 PP       0.063200
  10611 HB3        50.6500   62.3100   54.7300 hc      1179 PP       0.063200
  10612 C2         48.7600   62.5200   56.9400 c3      1180 PP      -0.006100
  10613 C1         47.5100   61.6300   56.9100 c3      1180 PP       0.076800
  10614 CB         47.9700   60.1500   57.0400 c3      1180 PP      -0.265900
  10615 H21        49.6700   61.9600   57.2200 hc      1180 PP       0.001900
  10616 H22        48.6600   63.3000   57.7100 hc      1180 PP       0.001900
  10617 H1         47.1300   61.6900   55.8800 hc      1180 PP       0.001800
  10618 HB1        48.7300   59.9700   56.2700 hc      1180 PP       0.063200
  10619 HB2        48.5400   60.0200   57.9800 hc      1180 PP       0.063200
  10620 HB3        47.2100   59.3700   56.9400 hc      1180 PP       0.063200
  10621 C2         46.4100   61.9200   58.0200 c3      1181 PP      -0.006100
  10622 C1         45.7000   63.2600   57.7200 c3      1181 PP       0.076800
  10623 CB         44.7100   63.1700   56.5300 c3      1181 PP      -0.265900
  10624 H21        45.6400   61.1500   57.9800 hc      1181 PP       0.001900
  10625 H22        46.7800   61.8100   59.0500 hc      1181 PP       0.001900
  10626 H1         46.4800   63.9800   57.4100 hc      1181 PP       0.001800
  10627 HB1        44.9000   62.3600   55.8100 hc      1181 PP       0.063200
  10628 HB2        43.7000   62.9700   56.9100 hc      1181 PP       0.063200
  10629 HB3        44.6300   64.1200   55.9800 hc      1181 PP       0.063200
  10630 C2         45.1100   63.8200   59.0300 c3      1182 PP      -0.006100
  10631 C1         44.0500   64.9100   59.0400 c3      1182 PP       0.076800
  10632 CB         43.3200   65.0700   60.4400 c3      1182 PP      -0.265900
  10633 H21        44.7500   62.9600   59.6200 hc      1182 PP       0.001900
  10634 H22        45.8800   64.1400   59.7500 hc      1182 PP       0.001900
  10635 H1         43.2100   64.5700   58.4200 hc      1182 PP       0.001800
  10636 HB1        44.1000   65.3700   61.1500 hc      1182 PP       0.063200
  10637 HB2        42.5800   65.8600   60.2800 hc      1182 PP       0.063200
  10638 HB3        42.9400   64.1000   60.8000 hc      1182 PP       0.063200
  10639 C2         44.5400   66.3800   58.6100 c3      1183 PP      -0.006100
  10640 C1         43.4300   67.3900   57.9900 c3      1183 PP       0.076800
  10641 CB         44.0100   68.7700   57.9100 c3      1183 PP      -0.265900
  10642 H21        44.8500   66.8000   59.5800 hc      1183 PP       0.001900
  10643 H22        45.4100   66.2100   57.9700 hc      1183 PP       0.001900
  10644 H1         42.5600   67.3900   58.6600 hc      1183 PP       0.001800
  10645 HB1        44.7100   68.9300   57.0900 hc      1183 PP       0.063200
  10646 HB2        43.2300   69.5300   57.7400 hc      1183 PP       0.063200
  10647 HB3        44.5700   69.0400   58.8100 hc      1183 PP       0.063200
  10648 C2         43.0300   66.9200   56.5500 c3      1184 PP      -0.006100
  10649 C1         41.6500   67.4900   56.0500 c3      1184 PP       0.076800
  10650 CB         41.7800   68.6000   54.9800 c3      1184 PP      -0.265900
  10651 H21        43.7900   67.3500   55.8900 hc      1184 PP       0.001900
  10652 H22        43.1100   65.8300   56.4800 hc      1184 PP       0.001900
  10653 H1         41.1500   67.9900   56.8900 hc      1184 PP       0.001800
  10654 HB1        42.0300   68.1800   54.0000 hc      1184 PP       0.063200
  10655 HB2        40.8600   69.1800   54.9100 hc      1184 PP       0.063200
  10656 HB3        42.5200   69.3700   55.2200 hc      1184 PP       0.063200
  10657 C2         40.7000   66.3900   55.6100 c3      1185 PP      -0.006100
  10658 C1         40.6500   64.9400   56.3600 c3      1185 PP       0.076800
  10659 CB         40.3800   65.1300   57.8800 c3      1185 PP      -0.265900
  10660 H21        39.7000   66.8300   55.5700 hc      1185 PP       0.001900
  10661 H22        40.9200   66.1900   54.5500 hc      1185 PP       0.001900
  10662 H1         41.6800   64.5700   56.3200 hc      1185 PP       0.001800
  10663 HB1        40.6400   64.2900   58.5300 hc      1185 PP       0.063200
  10664 HB2        40.9900   65.9200   58.3300 hc      1185 PP       0.063200
  10665 HB3        39.3200   65.3500   58.0600 hc      1185 PP       0.063200
  10666 C2         39.7400   63.9600   55.5600 c3      1186 PP      -0.006100
  10667 C1         39.3800   62.5500   56.2700 c3      1186 PP       0.076800
  10668 CB         38.5100   61.6200   55.3000 c3      1186 PP      -0.265900
  10669 H21        38.8200   64.5400   55.4100 hc      1186 PP       0.001900
  10670 H22        40.2400   63.7700   54.6000 hc      1186 PP       0.001900
  10671 H1         38.7800   62.7800   57.1600 hc      1186 PP       0.001800
  10672 HB1        37.7500   61.0500   55.8500 hc      1186 PP       0.063200
  10673 HB2        37.8700   62.2400   54.6700 hc      1186 PP       0.063200
  10674 HB3        39.1600   60.9900   54.6800 hc      1186 PP       0.063200
  10675 C2         40.7000   61.8400   56.6200 c3      1187 PP      -0.006100
  10676 C1         40.5900   60.4300   57.1600 c3      1187 PP       0.076800
  10677 CB         41.8700   59.6000   56.8300 c3      1187 PP      -0.265900
  10678 H21        41.1800   61.8600   55.6400 hc      1187 PP       0.001900
  10679 H22        41.3200   62.5200   57.2100 hc      1187 PP       0.001900
  10680 H1         39.8100   59.9200   56.5800 hc      1187 PP       0.001800
  10681 HB1        42.0000   59.4400   55.7500 hc      1187 PP       0.063200
  10682 HB2        42.8300   60.0200   57.1500 hc      1187 PP       0.063200
  10683 HB3        41.7200   58.5900   57.2300 hc      1187 PP       0.063200
  10684 C2         40.1300   60.4500   58.5900 c3      1188 PP      -0.006100
  10685 C1         41.1800   60.4000   59.7500 c3      1188 PP       0.076800
  10686 CB         42.2300   61.6000   59.7700 c3      1188 PP      -0.265900
  10687 H21        39.5400   61.3500   58.7900 hc      1188 PP       0.001900
  10688 H22        39.3900   59.6600   58.7600 hc      1188 PP       0.001900
  10689 H1         41.8000   59.5100   59.5800 hc      1188 PP       0.001800
  10690 HB1        41.7100   62.5600   59.6300 hc      1188 PP       0.063200
  10691 HB2        42.8900   61.5600   60.6500 hc      1188 PP       0.063200
  10692 HB3        42.9100   61.4500   58.9300 hc      1188 PP       0.063200
  10693 C2         40.4800   60.5200   61.1200 c3      1189 PP      -0.006100
  10694 C1         39.6500   59.2100   61.5700 c3      1189 PP       0.076800
  10695 CB         40.6800   58.0700   61.7300 c3      1189 PP      -0.265900
  10696 H21        41.2300   60.8600   61.8400 hc      1189 PP       0.001900
  10697 H22        39.7500   61.3400   61.1400 hc      1189 PP       0.001900
  10698 H1         38.9900   58.8600   60.7700 hc      1189 PP       0.001800
  10699 HB1        40.3600   57.3000   62.4500 hc      1189 PP       0.063200
  10700 HB2        40.7500   57.4700   60.8200 hc      1189 PP       0.063200
  10701 HB3        41.6800   58.4400   61.9600 hc      1189 PP       0.063200
  10702 C2         38.7700   59.4600   62.8200 c3      1190 PP      -0.006100
  10703 C1         37.5400   58.6100   62.9200 c3      1190 PP       0.076800
  10704 CB         37.7200   57.0600   62.6600 c3      1190 PP      -0.265900
  10705 H21        39.4200   59.2000   63.6600 hc      1190 PP       0.001900
  10706 H22        38.3200   60.4600   62.8600 hc      1190 PP       0.001900
  10707 H1         37.0000   58.8700   62.0000 hc      1190 PP       0.001800
  10708 HB1        38.0600   56.8600   61.6400 hc      1190 PP       0.063200
  10709 HB2        38.5300   56.6400   63.2800 hc      1190 PP       0.063200
  10710 HB3        36.7800   56.5600   62.8800 hc      1190 PP       0.063200
  10711 C2         36.6600   58.9400   64.1900 c3      1191 PP      -0.006100
  10712 C1         35.7500   60.0800   64.0000 c3      1191 PP       0.076800
  10713 CB         34.7000   59.6900   62.9100 c3      1191 PP      -0.265900
  10714 H21        36.1400   58.0800   64.6200 hc      1191 PP       0.001900
  10715 H22        37.3200   59.3200   64.9800 hc      1191 PP       0.001900
  10716 H1         36.3300   60.9800   63.7500 hc      1191 PP       0.001800
  10717 HB1        34.3700   58.6500   62.9900 hc      1191 PP       0.063200
  10718 HB2        33.7500   60.2300   62.9100 hc      1191 PP       0.063200
  10719 HB3        35.1600   59.8400   61.9200 hc      1191 PP       0.063200
  10720 C2         34.9900   60.2000   65.4100 c3      1192 PP      -0.006100
  10721 C1         34.9600   61.6800   65.8800 c3      1192 PP       0.076800
  10722 CB         36.4000   62.0900   66.3500 c3      1192 PP      -0.265900
  10723 H21        33.9800   59.7800   65.3500 hc      1192 PP       0.001900
  10724 H22        35.4000   59.5600   66.2000 hc      1192 PP       0.001900
  10725 H1         34.4700   61.6300   66.8600 hc      1192 PP       0.001800
  10726 HB1        37.0900   62.1600   65.5100 hc      1192 PP       0.063200
  10727 HB2        36.5100   63.0600   66.8500 hc      1192 PP       0.063200
  10728 HB3        36.7800   61.3500   67.0700 hc      1192 PP       0.063200
  10729 C2         34.1200   62.6400   64.9600 c3      1193 PP      -0.006100
  10730 C1         33.6200   63.9700   65.5700 c3      1193 PP       0.076800
  10731 CB         32.9700   63.8500   66.9300 c3      1193 PP      -0.265900
  10732 H21        34.7400   62.8100   64.0700 hc      1193 PP       0.001900
  10733 H22        33.1900   62.1200   64.6800 hc      1193 PP       0.001900
  10734 H1         32.7800   64.3600   64.9900 hc      1193 PP       0.001800
  10735 HB1        32.4200   64.7500   67.2400 hc      1193 PP       0.063200
  10736 HB2        32.1900   63.0800   66.8800 hc      1193 PP       0.063200
  10737 HB3        33.6900   63.6700   67.7400 hc      1193 PP       0.063200
  10738 C2         34.7600   64.9700   65.5500 c3      1194 PP      -0.006100
  10739 C1         34.3800   66.4500   65.4900 c3      1194 PP       0.076800
  10740 CB         35.6300   67.2900   65.8600 c3      1194 PP      -0.265900
  10741 H21        35.5600   64.7900   66.2700 hc      1194 PP       0.001900
  10742 H22        35.3600   64.7700   64.6600 hc      1194 PP       0.001900
  10743 H1         33.6100   66.5800   66.2500 hc      1194 PP       0.001800
  10744 HB1        36.0700   66.8700   66.7700 hc      1194 PP       0.063200
  10745 HB2        36.4800   67.2100   65.1700 hc      1194 PP       0.063200
  10746 HB3        35.4200   68.3600   65.9200 hc      1194 PP       0.063200
  10747 C2         33.8000   66.7800   64.1000 c3      1195 PP      -0.006100
  10748 C1         33.4400   68.2700   63.8100 c3      1195 PP       0.076800
  10749 CB         33.3600   68.5400   62.2900 c3      1195 PP      -0.265900
  10750 H21        34.5500   66.5600   63.3300 hc      1195 PP       0.001900
  10751 H22        33.0100   66.1000   63.7700 hc      1195 PP       0.001900
  10752 H1         34.1400   69.0000   64.2400 hc      1195 PP       0.001800
  10753 HB1        32.6200   67.8800   61.8200 hc      1195 PP       0.063200
  10754 HB2        33.1200   69.5700   62.0000 hc      1195 PP       0.063200
  10755 HB3        34.3700   68.4500   61.8700 hc      1195 PP       0.063200
  10756 C2         32.0800   68.6300   64.3000 c3      1196 PP      -0.006100
  10757 C1         31.9800   69.1300   65.8400 c3      1196 PP       0.076800
  10758 CB         32.7100   70.5100   65.9300 c3      1196 PP      -0.265900
  10759 H21        31.6400   69.4100   63.6600 hc      1196 PP       0.001900
  10760 H22        31.4100   67.7900   64.0700 hc      1196 PP       0.001900
  10761 H1         32.5100   68.3900   66.4600 hc      1196 PP       0.001800
  10762 HB1        32.4900   71.0000   66.8800 hc      1196 PP       0.063200
  10763 HB2        33.7700   70.2300   66.0600 hc      1196 PP       0.063200
  10764 HB3        32.5700   71.1900   65.0800 hc      1196 PP       0.063200
  10765 C2         30.5100   69.3700   66.4600 c3      1197 PP      -0.006100
  10766 C1         29.4700   68.1200   66.2000 c3      1197 PP       0.076800
  10767 CB         30.0200   66.8300   66.9200 c3      1197 PP      -0.265900
  10768 H21        30.5100   69.5500   67.5400 hc      1197 PP       0.001900
  10769 H22        30.1400   70.3400   66.1400 hc      1197 PP       0.001900
  10770 H1         29.3800   67.7900   65.1600 hc      1197 PP       0.001800
  10771 HB1        30.8200   66.3600   66.3300 hc      1197 PP       0.063200
  10772 HB2        30.4400   67.1500   67.8800 hc      1197 PP       0.063200
  10773 HB3        29.3200   66.0000   67.0700 hc      1197 PP       0.063200
  10774 C2         28.0100   68.6100   66.6800 c3      1198 PP      -0.006100
  10775 C1         26.7800   67.9400   66.0100 c3      1198 PP       0.076800
  10776 CB         26.8100   66.4000   66.1900 c3      1198 PP      -0.265900
  10777 H21        27.9800   68.4000   67.7600 hc      1198 PP       0.001900
  10778 H22        27.8100   69.6800   66.5100 hc      1198 PP       0.001900
  10779 H1         26.9300   68.1600   64.9500 hc      1198 PP       0.001800
  10780 HB1        25.9100   65.9300   65.7600 hc      1198 PP       0.063200
  10781 HB2        27.7000   66.0100   65.6900 hc      1198 PP       0.063200
  10782 HB3        26.8100   66.0800   67.2400 hc      1198 PP       0.063200
  10783 C2         25.4500   68.5500   66.5400 c3      1199 PP      -0.006100
  10784 C1         24.1800   68.6300   65.6300 c3      1199 PP       0.076800
  10785 CB         22.7900   68.2400   66.1800 c3      1199 PP      -0.265900
  10786 H21        25.2600   67.9000   67.4000 hc      1199 PP       0.001900
  10787 H22        25.5600   69.5900   66.8800 hc      1199 PP       0.001900
  10788 H1         24.3100   67.9400   64.7900 hc      1199 PP       0.001800
  10789 HB1        22.7500   67.1700   66.4200 hc      1199 PP       0.063200
  10790 HB2        22.6100   68.7700   67.1200 hc      1199 PP       0.063200
  10791 HB3        21.9900   68.6700   65.5600 hc      1199 PP       0.063200
  10792 C2         24.0200   70.0200   64.9300 c3      1200 PP      -0.006100
  10793 C1         25.3700   70.5000   64.2400 c3      1200 PP       0.076800
  10794 CB         25.2900   71.7900   63.5200 c3      1200 PP      -0.265900
  10795 H21        23.5900   70.7500   65.6200 hc      1200 PP       0.001900
  10796 H22        23.2000   69.9900   64.2000 hc      1200 PP       0.001900
  10797 H1         26.1300   70.5700   65.0200 hc      1200 PP       0.001800
  10798 HB1        24.4300   71.7600   62.8400 hc      1200 PP       0.063200
  10799 HB2        24.9100   72.5200   64.2400 hc      1200 PP       0.063200
  10800 HB3        26.2600   72.1200   63.1300 hc      1200 PP       0.063200
  10801 C2         17.1400   14.1900   60.9600 c3      1201 PP      -0.006100
  10802 C1         18.4000   14.7400   60.2000 c3      1201 PP       0.076800
  10803 CB         19.2800   13.6300   59.5800 c3      1201 PP      -0.265900
  10804 H21        16.9900   13.1200   60.7700 hc      1201 PP       0.001900
  10805 H22        17.2800   14.3200   62.0400 hc      1201 PP       0.001900
  10806 H1         19.0300   15.3200   60.8900 hc      1201 PP       0.001800
  10807 HB1        19.7000   13.1600   60.4800 hc      1201 PP       0.063200
  10808 HB2        18.6100   12.9200   59.0900 hc      1201 PP       0.063200
  10809 HB3        20.0700   14.0000   58.9100 hc      1201 PP       0.063200
  10810 C2         17.9900   15.6700   59.0600 c3      1202 PP      -0.006100
  10811 C1         19.1700   16.4600   58.3700 c3      1202 PP       0.076800
  10812 CB         19.0500   16.3700   56.8800 c3      1202 PP      -0.265900
  10813 H21        17.4100   15.0000   58.4200 hc      1202 PP       0.001900
  10814 H22        17.3200   16.4600   59.4200 hc      1202 PP       0.001900
  10815 H1         20.1500   16.0100   58.5900 hc      1202 PP       0.001800
  10816 HB1        19.1700   15.3000   56.6900 hc      1202 PP       0.063200
  10817 HB2        18.0200   16.5900   56.5700 hc      1202 PP       0.063200
  10818 HB3        19.8600   16.9200   56.3800 hc      1202 PP       0.063200
  10819 C2         19.3600   17.9600   58.8000 c3      1203 PP      -0.006100
  10820 C1         19.6900   18.2100   60.3000 c3      1203 PP       0.076800
  10821 CB         21.0600   17.6700   60.6800 c3      1203 PP      -0.265900
  10822 H21        20.2600   18.3000   58.2600 hc      1203 PP       0.001900
  10823 H22        18.4100   18.3800   58.4500 hc      1203 PP       0.001900
  10824 H1         18.9200   17.6300   60.8300 hc      1203 PP       0.001800
  10825 HB1        21.8800   18.1600   60.1300 hc      1203 PP       0.063200
  10826 HB2        21.2800   17.8000   61.7400 hc      1203 PP       0.063200
  10827 HB3        21.1200   16.6000   60.4700 hc      1203 PP       0.063200
  10828 C2         19.5400   19.7100   60.6100 c3      1204 PP      -0.006100
  10829 C1         19.5500   20.0000   62.1900 c3      1204 PP       0.076800
  10830 CB         20.2000   21.3100   62.4600 c3      1204 PP      -0.265900
  10831 H21        20.3400   20.3000   60.1400 hc      1204 PP       0.001900
  10832 H22        18.6000   20.0700   60.1800 hc      1204 PP       0.001900
  10833 H1         20.1300   19.2000   62.6800 hc      1204 PP       0.001800
  10834 HB1        20.0600   21.6000   63.5100 hc      1204 PP       0.063200
  10835 HB2        21.2800   21.3600   62.2800 hc      1204 PP       0.063200
  10836 HB3        19.7900   22.0500   61.7600 hc      1204 PP       0.063200
  10837 C2         18.1200   19.8500   62.8500 c3      1205 PP      -0.006100
  10838 C1         17.6900   20.1500   64.3100 c3      1205 PP       0.076800
  10839 CB         16.2000   20.4800   64.3700 c3      1205 PP      -0.265900
  10840 H21        17.5000   20.6000   62.3400 hc      1205 PP       0.001900
  10841 H22        17.6000   18.9100   62.6000 hc      1205 PP       0.001900
  10842 H1         18.2100   21.0700   64.6100 hc      1205 PP       0.001800
  10843 HB1        15.9600   21.0100   65.3000 hc      1205 PP       0.063200
  10844 HB2        15.9500   21.1300   63.5200 hc      1205 PP       0.063200
  10845 HB3        15.6600   19.5300   64.3200 hc      1205 PP       0.063200
  10846 C2         18.1100   18.9900   65.2600 c3      1206 PP      -0.006100
  10847 C1         19.5900   18.9100   65.6500 c3      1206 PP       0.076800
  10848 CB         20.1400   20.0600   66.6000 c3      1206 PP      -0.265900
  10849 H21        17.5700   19.1900   66.1900 hc      1206 PP       0.001900
  10850 H22        17.6400   18.0300   65.0000 hc      1206 PP       0.001900
  10851 H1         20.2000   18.9100   64.7300 hc      1206 PP       0.001800
  10852 HB1        19.5300   20.1300   67.5100 hc      1206 PP       0.063200
  10853 HB2        21.1800   19.9100   66.9100 hc      1206 PP       0.063200
  10854 HB3        20.1200   21.0000   66.0300 hc      1206 PP       0.063200
  10855 C2         19.9000   17.4800   66.3100 c3      1207 PP      -0.006100
  10856 C1         20.2400   16.2900   65.3600 c3      1207 PP       0.076800
  10857 CB         19.1100   15.9600   64.3800 c3      1207 PP      -0.265900
  10858 H21        20.6500   17.6000   67.1000 hc      1207 PP       0.001900
  10859 H22        19.0400   17.1100   66.9000 hc      1207 PP       0.001900
  10860 H1         20.3600   15.4400   66.0400 hc      1207 PP       0.001800
  10861 HB1        18.9400   16.7700   63.6600 hc      1207 PP       0.063200
  10862 HB2        19.4300   15.0500   63.8700 hc      1207 PP       0.063200
  10863 HB3        18.2200   15.7600   64.9900 hc      1207 PP       0.063200
  10864 C2         21.6400   16.4700   64.6400 c3      1208 PP      -0.006100
  10865 C1         22.8500   16.8600   65.5300 c3      1208 PP       0.076800
  10866 CB         23.1500   15.7900   66.6400 c3      1208 PP      -0.265900
  10867 H21        21.8400   15.6100   63.9900 hc      1208 PP       0.001900
  10868 H22        21.5000   17.2300   63.8600 hc      1208 PP       0.001900
  10869 H1         22.7300   17.7500   66.1700 hc      1208 PP       0.001800
  10870 HB1        23.3300   14.7800   66.2500 hc      1208 PP       0.063200
  10871 HB2        24.0100   16.0300   67.2700 hc      1208 PP       0.063200
  10872 HB3        22.3000   15.7400   67.3300 hc      1208 PP       0.063200
  10873 C2         24.1000   17.0700   64.6400 c3      1209 PP      -0.006100
  10874 C1         24.1000   18.1500   63.4600 c3      1209 PP       0.076800
  10875 CB         23.6100   19.4800   64.0600 c3      1209 PP      -0.265900
  10876 H21        24.9200   17.3700   65.3000 hc      1209 PP       0.001900
  10877 H22        24.3500   16.1200   64.1700 hc      1209 PP       0.001900
  10878 H1         23.3500   17.8700   62.7100 hc      1209 PP       0.001800
  10879 HB1        24.1600   19.7300   64.9800 hc      1209 PP       0.063200
  10880 HB2        23.4300   20.2900   63.3500 hc      1209 PP       0.063200
  10881 HB3        22.5800   19.2300   64.3400 hc      1209 PP       0.063200
  10882 C2         25.5100   18.2200   62.7500 c3      1210 PP      -0.006100
  10883 C1         25.8200   16.9200   61.9100 c3      1210 PP       0.076800
  10884 CB         25.7500   17.2400   60.4300 c3      1210 PP      -0.265900
  10885 H21        25.5600   19.0700   62.0600 hc      1210 PP       0.001900
  10886 H22        26.2600   18.4700   63.5100 hc      1210 PP       0.001900
  10887 H1         25.0000   16.2300   62.1400 hc      1210 PP       0.001800
  10888 HB1        24.7300   17.5500   60.1600 hc      1210 PP       0.063200
  10889 HB2        26.4000   18.0800   60.1300 hc      1210 PP       0.063200
  10890 HB3        25.8700   16.3400   59.8100 hc      1210 PP       0.063200
  10891 C2         27.2100   16.3700   62.3200 c3      1211 PP      -0.006100
  10892 C1         27.1100   14.9800   63.0300 c3      1211 PP       0.076800
  10893 CB         27.2300   13.8500   61.9800 c3      1211 PP      -0.265900
  10894 H21        27.8400   16.4100   61.4200 hc      1211 PP       0.001900
  10895 H22        27.7300   17.0500   63.0000 hc      1211 PP       0.001900
  10896 H1         26.1000   14.9400   63.4400 hc      1211 PP       0.001800
  10897 HB1        27.9900   14.1600   61.2500 hc      1211 PP       0.063200
  10898 HB2        27.5900   12.9000   62.3700 hc      1211 PP       0.063200
  10899 HB3        26.2800   13.6700   61.4600 hc      1211 PP       0.063200
  10900 C2         28.1000   14.8500   64.1900 c3      1212 PP      -0.006100
  10901 C1         27.5100   15.1400   65.6300 c3      1212 PP       0.076800
  10902 CB         26.9700   13.8600   66.3400 c3      1212 PP      -0.265900
  10903 H21        28.4800   13.8200   64.2000 hc      1212 PP       0.001900
  10904 H22        29.0000   15.4300   63.9500 hc      1212 PP       0.001900
  10905 H1         26.7000   15.8800   65.5800 hc      1212 PP       0.001800
  10906 HB1        26.4800   13.3000   65.5300 hc      1212 PP       0.063200
  10907 HB2        27.7300   13.1800   66.7400 hc      1212 PP       0.063200
  10908 HB3        26.3100   14.2300   67.1300 hc      1212 PP       0.063200
  10909 C2         28.6200   15.7700   66.4700 c3      1213 PP      -0.006100
  10910 C1         29.0500   17.1600   66.0000 c3      1213 PP       0.076800
  10911 CB         28.0900   18.2800   66.6800 c3      1213 PP      -0.265900
  10912 H21        28.2800   15.8200   67.5100 hc      1213 PP       0.001900
  10913 H22        29.4100   15.0200   66.6100 hc      1213 PP       0.001900
  10914 H1         28.9000   17.3200   64.9200 hc      1213 PP       0.001800
  10915 HB1        28.1800   19.3200   66.3500 hc      1213 PP       0.063200
  10916 HB2        27.0500   17.9800   66.4900 hc      1213 PP       0.063200
  10917 HB3        28.2500   18.2000   67.7600 hc      1213 PP       0.063200
  10918 C2         30.5400   17.3800   66.3000 c3      1214 PP      -0.006100
  10919 C1         31.0100   18.8200   65.8500 c3      1214 PP       0.076800
  10920 CB         32.3600   19.2400   66.6100 c3      1214 PP      -0.265900
  10921 H21        30.6100   17.2900   67.3900 hc      1214 PP       0.001900
  10922 H22        31.1600   16.6500   65.7600 hc      1214 PP       0.001900
  10923 H1         30.2600   19.5400   66.1600 hc      1214 PP       0.001800
  10924 HB1        32.5000   18.8200   67.6100 hc      1214 PP       0.063200
  10925 HB2        33.2100   18.9400   66.0000 hc      1214 PP       0.063200
  10926 HB3        32.4700   20.3200   66.7600 hc      1214 PP       0.063200
  10927 C2         31.4300   19.0600   64.4000 c3      1215 PP      -0.006100
  10928 C1         30.2600   19.4900   63.4500 c3      1215 PP       0.076800
  10929 CB         30.1900   20.9800   63.2600 c3      1215 PP      -0.265900
  10930 H21        32.1400   19.8900   64.3000 hc      1215 PP       0.001900
  10931 H22        31.9400   18.1600   64.0300 hc      1215 PP       0.001900
  10932 H1         29.3800   19.3200   64.0800 hc      1215 PP       0.001800
  10933 HB1        30.4200   21.5400   64.1800 hc      1215 PP       0.063200
  10934 HB2        30.7500   21.3100   62.3800 hc      1215 PP       0.063200
  10935 HB3        29.1400   21.1600   63.0200 hc      1215 PP       0.063200
  10936 C2         29.9400   18.6800   62.1400 c3      1216 PP      -0.006100
  10937 C1         30.9100   18.9300   60.9600 c3      1216 PP       0.076800
  10938 CB         32.3900   18.4000   61.2100 c3      1216 PP      -0.265900
  10939 H21        29.9800   17.6300   62.4600 hc      1216 PP       0.001900
  10940 H22        28.8700   18.8100   61.9200 hc      1216 PP       0.001900
  10941 H1         30.9200   20.0200   60.8300 hc      1216 PP       0.001800
  10942 HB1        32.4700   17.3200   61.3600 hc      1216 PP       0.063200
  10943 HB2        33.0600   18.6700   60.3900 hc      1216 PP       0.063200
  10944 HB3        32.7600   18.9300   62.1000 hc      1216 PP       0.063200
  10945 C2         30.3000   18.1600   59.7500 c3      1217 PP      -0.006100
  10946 C1         30.0600   18.8600   58.4200 c3      1217 PP       0.076800
  10947 CB         31.4100   19.3700   57.8100 c3      1217 PP      -0.265900
  10948 H21        30.8100   17.2200   59.5300 hc      1217 PP       0.001900
  10949 H22        29.3200   17.6900   59.9300 hc      1217 PP       0.001900
  10950 H1         29.5000   19.7500   58.7300 hc      1217 PP       0.001800
  10951 HB1        31.9800   18.5200   57.4100 hc      1217 PP       0.063200
  10952 HB2        31.1600   20.0000   56.9400 hc      1217 PP       0.063200
  10953 HB3        32.0600   19.9900   58.4400 hc      1217 PP       0.063200
  10954 C2         29.1300   18.1000   57.5300 c3      1218 PP      -0.006100
  10955 C1         28.5700   18.8400   56.2700 c3      1218 PP       0.076800
  10956 CB         27.8100   17.8400   55.3900 c3      1218 PP      -0.265900
  10957 H21        29.5200   17.1400   57.1700 hc      1218 PP       0.001900
  10958 H22        28.2400   17.7900   58.0800 hc      1218 PP       0.001900
  10959 H1         29.4900   19.0600   55.7000 hc      1218 PP       0.001800
  10960 HB1        26.9500   17.4000   55.9100 hc      1218 PP       0.063200
  10961 HB2        27.4400   18.2600   54.4500 hc      1218 PP       0.063200
  10962 HB3        28.4700   16.9700   55.2600 hc      1218 PP       0.063200
  10963 C2         27.7500   20.1100   56.5700 c3      1219 PP      -0.006100
  10964 C1         28.5300   21.4600   56.4000 c3      1219 PP       0.076800
  10965 CB         28.5900   21.7100   54.8300 c3      1219 PP      -0.265900
  10966 H21        26.8400   20.1200   55.9600 hc      1219 PP       0.001900
  10967 H22        27.5400   19.9000   57.6200 hc      1219 PP       0.001900
  10968 H1         29.5600   21.4100   56.7700 hc      1219 PP       0.001800
  10969 HB1        27.6300   21.4300   54.3900 hc      1219 PP       0.063200
  10970 HB2        28.8200   22.7400   54.5300 hc      1219 PP       0.063200
  10971 HB3        29.2200   20.9400   54.3700 hc      1219 PP       0.063200
  10972 C2         27.8900   22.5300   57.1700 c3      1220 PP      -0.006100
  10973 C1         27.8900   22.3800   58.7400 c3      1220 PP       0.076800
  10974 CB         29.2300   22.7500   59.3200 c3      1220 PP      -0.265900
  10975 H21        28.2700   23.5400   56.9500 hc      1220 PP       0.001900
  10976 H22        26.8700   22.4900   56.7700 hc      1220 PP       0.001900
  10977 H1         27.6700   21.3600   59.0800 hc      1220 PP       0.001800
  10978 HB1        29.5900   23.7600   59.0900 hc      1220 PP       0.063200
  10979 HB2        29.2000   22.6400   60.4100 hc      1220 PP       0.063200
  10980 HB3        29.9900   22.0500   58.9400 hc      1220 PP       0.063200
  10981 C2         26.6700   23.1700   59.3800 c3      1221 PP      -0.006100
  10982 C1         25.2800   22.3900   59.4200 c3      1221 PP       0.076800
  10983 CB         25.4000   21.1300   60.3200 c3      1221 PP      -0.265900
  10984 H21        27.0100   23.4800   60.3700 hc      1221 PP       0.001900
  10985 H22        26.5900   24.1400   58.8700 hc      1221 PP       0.001900
  10986 H1         25.0400   22.0400   58.4100 hc      1221 PP       0.001800
  10987 HB1        25.8400   20.3000   59.7500 hc      1221 PP       0.063200
  10988 HB2        25.8600   21.3300   61.3000 hc      1221 PP       0.063200
  10989 HB3        24.4000   20.8000   60.6100 hc      1221 PP       0.063200
  10990 C2         24.1300   23.2300   59.8400 c3      1222 PP      -0.006100
  10991 C1         23.5100   24.2900   58.6900 c3      1222 PP       0.076800
  10992 CB         24.4000   25.5200   58.3700 c3      1222 PP      -0.265900
  10993 H21        23.3400   22.5700   60.2300 hc      1222 PP       0.001900
  10994 H22        24.3400   23.8300   60.7400 hc      1222 PP       0.001900
  10995 H1         22.6900   24.7700   59.2500 hc      1222 PP       0.001800
  10996 HB1        24.7700   25.9400   59.3100 hc      1222 PP       0.063200
  10997 HB2        25.2300   25.3600   57.6700 hc      1222 PP       0.063200
  10998 HB3        23.6400   26.2600   58.0800 hc      1222 PP       0.063200
  10999 C2         22.8600   23.6200   57.4400 c3      1223 PP      -0.006100
  11000 C1         21.8900   22.3400   57.7900 c3      1223 PP       0.076800
  11001 CB         20.7400   22.7500   58.7600 c3      1223 PP      -0.265900
  11002 H21        22.3000   24.4400   56.9800 hc      1223 PP       0.001900
  11003 H22        23.7100   23.4400   56.7700 hc      1223 PP       0.001900
  11004 H1         22.5200   21.5800   58.2800 hc      1223 PP       0.001800
  11005 HB1        19.7300   22.3200   58.6900 hc      1223 PP       0.063200
  11006 HB2        21.1100   22.6500   59.7900 hc      1223 PP       0.063200
  11007 HB3        20.5400   23.8200   58.6500 hc      1223 PP       0.063200
  11008 C2         21.3100   21.8300   56.4400 c3      1224 PP      -0.006100
  11009 C1         20.8500   20.3300   56.5400 c3      1224 PP       0.076800
  11010 CB         19.3100   20.3000   56.2300 c3      1224 PP      -0.265900
  11011 H21        20.6000   22.5600   56.0300 hc      1224 PP       0.001900
  11012 H22        22.1000   21.8200   55.6900 hc      1224 PP       0.001900
  11013 H1         21.0900   20.0500   57.5700 hc      1224 PP       0.001800
  11014 HB1        18.9400   19.2700   56.1700 hc      1224 PP       0.063200
  11015 HB2        18.7600   20.7100   57.0900 hc      1224 PP       0.063200
  11016 HB3        19.0200   20.8900   55.3500 hc      1224 PP       0.063200
  11017 C2         21.7600   19.3900   55.6700 c3      1225 PP      -0.006100
  11018 C1         23.2500   19.3300   56.0800 c3      1225 PP       0.076800
  11019 CB         23.5600   18.6700   57.4300 c3      1225 PP      -0.265900
  11020 H21        21.3300   18.3800   55.7500 hc      1225 PP       0.001900
  11021 H22        21.6600   19.7000   54.6200 hc      1225 PP       0.001900
  11022 H1         23.6200   20.3600   56.0900 hc      1225 PP       0.001800
  11023 HB1        24.5900   18.4500   57.7100 hc      1225 PP       0.063200
  11024 HB2        23.2500   19.2600   58.3000 hc      1225 PP       0.063200
  11025 HB3        23.0300   17.7100   57.5700 hc      1225 PP       0.063200
  11026 C2         23.9300   18.6100   54.9400 c3      1226 PP      -0.006100
  11027 C1         23.9300   19.3400   53.5300 c3      1226 PP       0.076800
  11028 CB         24.1500   20.8600   53.5700 c3      1226 PP      -0.265900
  11029 H21        24.9700   18.4200   55.2300 hc      1226 PP       0.001900
  11030 H22        23.4800   17.6200   54.7900 hc      1226 PP       0.001900
  11031 H1         22.9700   19.1100   53.0700 hc      1226 PP       0.001800
  11032 HB1        25.0000   21.1600   54.1900 hc      1226 PP       0.063200
  11033 HB2        24.3600   21.2400   52.5600 hc      1226 PP       0.063200
  11034 HB3        23.3100   21.4500   53.9600 hc      1226 PP       0.063200
  11035 C2         25.0900   18.7500   52.6100 c3      1227 PP      -0.006100
  11036 C1         24.6800   18.6000   51.1300 c3      1227 PP       0.076800
  11037 CB         25.7000   19.0800   50.0400 c3      1227 PP      -0.265900
  11038 H21        25.9700   19.4000   52.7500 hc      1227 PP       0.001900
  11039 H22        25.5000   17.8200   53.0300 hc      1227 PP       0.001900
  11040 H1         23.8900   19.3600   51.1000 hc      1227 PP       0.001800
  11041 HB1        25.1700   19.1400   49.0900 hc      1227 PP       0.063200
  11042 HB2        25.9500   20.1300   50.2500 hc      1227 PP       0.063200
  11043 HB3        26.5400   18.3700   49.9500 hc      1227 PP       0.063200
  11044 C2         24.1800   17.1500   50.8400 c3      1228 PP      -0.006100
  11045 C1         22.8300   16.6400   51.5700 c3      1228 PP       0.076800
  11046 CB         21.6800   17.2400   50.6700 c3      1228 PP      -0.265900
  11047 H21        24.1400   17.0800   49.7400 hc      1228 PP       0.001900
  11048 H22        24.9500   16.4600   51.2100 hc      1228 PP       0.001900
  11049 H1         22.8500   16.9800   52.6100 hc      1228 PP       0.001800
  11050 HB1        21.8500   17.0100   49.6100 hc      1228 PP       0.063200
  11051 HB2        20.6500   16.9200   50.8500 hc      1228 PP       0.063200
  11052 HB3        21.7000   18.3400   50.7600 hc      1228 PP       0.063200
  11053 C2         22.7400   15.0700   51.6700 c3      1229 PP      -0.006100
  11054 C1         22.8800   14.2700   50.3300 c3      1229 PP       0.076800
  11055 CB         24.0600   13.2400   50.2500 c3      1229 PP      -0.265900
  11056 H21        23.5000   14.7700   52.4000 hc      1229 PP       0.001900
  11057 H22        21.7300   14.9400   52.0700 hc      1229 PP       0.001900
  11058 H1         22.9500   14.9900   49.5000 hc      1229 PP       0.001800
  11059 HB1        24.1900   12.6600   51.1800 hc      1229 PP       0.063200
  11060 HB2        23.8700   12.5300   49.4300 hc      1229 PP       0.063200
  11061 HB3        24.9200   13.9000   50.0800 hc      1229 PP       0.063200
  11062 C2         21.6100   13.3800   50.1200 c3      1230 PP      -0.006100
  11063 C1         20.3100   14.2700   50.0900 c3      1230 PP       0.076800
  11064 CB         19.0200   13.3700   50.1300 c3      1230 PP      -0.265900
  11065 H21        21.4400   12.7100   50.9700 hc      1230 PP       0.001900
  11066 H22        21.6000   12.7400   49.2300 hc      1230 PP       0.001900
  11067 H1         20.2800   14.9900   49.2600 hc      1230 PP       0.001800
  11068 HB1        18.6200   13.1500   51.1200 hc      1230 PP       0.063200
  11069 HB2        18.2200   13.8800   49.5600 hc      1230 PP       0.063200
  11070 HB3        19.2300   12.4400   49.5900 hc      1230 PP       0.063200
  11071 C2         59.9000   56.4900   66.5800 c3      1231 PP      -0.006100
  11072 C1         59.6000   57.2600   65.3400 c3      1231 PP       0.076800
  11073 CB         59.3500   56.2100   64.1800 c3      1231 PP      -0.265900
  11074 H21        58.9900   56.0300   67.0000 hc      1231 PP       0.001900
  11075 H22        60.2600   57.1300   67.3900 hc      1231 PP       0.001900
  11076 H1         60.5800   57.7300   65.1800 hc      1231 PP       0.001800
  11077 HB1        59.9000   55.2700   64.3300 hc      1231 PP       0.063200
  11078 HB2        58.3200   55.8500   64.3200 hc      1231 PP       0.063200
  11079 HB3        59.5300   56.6600   63.2000 hc      1231 PP       0.063200
  11080 C2         58.4700   58.3000   65.4700 c3      1232 PP      -0.006100
  11081 C1         58.6100   59.1800   66.7800 c3      1232 PP       0.076800
  11082 CB         60.0200   59.9800   66.8800 c3      1232 PP      -0.265900
  11083 H21        58.4800   58.8900   64.5500 hc      1232 PP       0.001900
  11084 H22        57.5100   57.7800   65.5300 hc      1232 PP       0.001900
  11085 H1         58.4800   58.4900   67.6200 hc      1232 PP       0.001800
  11086 HB1        60.9300   59.3600   66.8900 hc      1232 PP       0.063200
  11087 HB2        60.0900   60.7200   66.0700 hc      1232 PP       0.063200
  11088 HB3        60.1100   60.5400   67.8200 hc      1232 PP       0.063200
  11089 C2         57.4700   60.2600   66.9300 c3      1233 PP      -0.006100
  11090 C1         57.5200   61.5300   65.9200 c3      1233 PP       0.076800
  11091 CB         56.1100   61.8600   65.3000 c3      1233 PP      -0.265900
  11092 H21        56.5300   59.7100   66.7700 hc      1233 PP       0.001900
  11093 H22        57.4900   60.6200   67.9700 hc      1233 PP       0.001900
  11094 H1         58.1100   61.3700   65.0000 hc      1233 PP       0.001800
  11095 HB1        55.6700   60.9300   64.9300 hc      1233 PP       0.063200
  11096 HB2        55.3700   62.2400   66.0200 hc      1233 PP       0.063200
  11097 HB3        56.1100   62.6100   64.5000 hc      1233 PP       0.063200
  11098 C2         58.1000   62.8500   66.5400 c3      1234 PP      -0.006100
  11099 C1         59.1100   63.6900   65.6000 c3      1234 PP       0.076800
  11100 CB         58.4800   64.5000   64.4800 c3      1234 PP      -0.265900
  11101 H21        57.3200   63.5300   66.8900 hc      1234 PP       0.001900
  11102 H22        58.6800   62.7000   67.4600 hc      1234 PP       0.001900
  11103 H1         59.8100   62.9600   65.1800 hc      1234 PP       0.001800
  11104 HB1        57.8800   63.8800   63.8000 hc      1234 PP       0.063200
  11105 HB2        57.7800   65.2200   64.9100 hc      1234 PP       0.063200
  11106 HB3        59.1700   65.1200   63.8900 hc      1234 PP       0.063200
  11107 C2         59.8500   64.6700   66.6100 c3      1235 PP      -0.006100
  11108 C1         61.3400   64.9300   66.2200 c3      1235 PP       0.076800
  11109 CB         61.8800   66.2600   66.8100 c3      1235 PP      -0.265900
  11110 H21        59.3500   65.6500   66.6600 hc      1235 PP       0.001900
  11111 H22        59.8500   64.3600   67.6600 hc      1235 PP       0.001900
  11112 H1         61.1900   65.1800   65.1600 hc      1235 PP       0.001800
  11113 HB1        61.1900   67.0800   66.5600 hc      1235 PP       0.063200
  11114 HB2        61.9700   66.1300   67.9000 hc      1235 PP       0.063200
  11115 HB3        62.8700   66.5600   66.4700 hc      1235 PP       0.063200
  11116 C2         62.4000   63.7700   66.3300 c3      1236 PP      -0.006100
  11117 C1         63.6900   63.8900   65.4200 c3      1236 PP       0.076800
  11118 CB         64.9600   63.6100   66.3100 c3      1236 PP      -0.265900
  11119 H21        62.7200   63.7500   67.3800 hc      1236 PP       0.001900
  11120 H22        61.9600   62.7800   66.1800 hc      1236 PP       0.001900
  11121 H1         63.8900   64.9000   65.0500 hc      1236 PP       0.001800
  11122 HB1        64.8800   64.1800   67.2500 hc      1236 PP       0.063200
  11123 HB2        65.0600   62.5600   66.6000 hc      1236 PP       0.063200
  11124 HB3        65.8500   63.9700   65.7900 hc      1236 PP       0.063200
  11125 C2         63.6900   62.9200   64.2200 c3      1237 PP      -0.006100
  11126 C1         62.4300   63.0200   63.3100 c3      1237 PP       0.076800
  11127 CB         62.3800   64.3700   62.6500 c3      1237 PP      -0.265900
  11128 H21        64.6400   63.1000   63.7000 hc      1237 PP       0.001900
  11129 H22        63.7500   61.8800   64.5600 hc      1237 PP       0.001900
  11130 H1         61.5000   62.9200   63.8800 hc      1237 PP       0.001800
  11131 HB1        61.3700   64.4500   62.2200 hc      1237 PP       0.063200
  11132 HB2        62.5700   65.2200   63.3100 hc      1237 PP       0.063200
  11133 HB3        63.0400   64.4900   61.7800 hc      1237 PP       0.063200
  11134 C2         62.5100   61.9200   62.1300 c3      1238 PP      -0.006100
  11135 C1         61.4200   60.8900   62.0400 c3      1238 PP       0.076800
  11136 CB         61.6400   59.8500   63.1900 c3      1238 PP      -0.265900
  11137 H21        62.5600   62.4400   61.1700 hc      1238 PP       0.001900
  11138 H22        63.4600   61.3800   62.2400 hc      1238 PP       0.001900
  11139 H1         61.5500   60.4200   61.0600 hc      1238 PP       0.001800
  11140 HB1        61.6300   60.3800   64.1600 hc      1238 PP       0.063200
  11141 HB2        60.9200   59.0200   63.2500 hc      1238 PP       0.063200
  11142 HB3        62.6000   59.3500   63.1300 hc      1238 PP       0.063200
  11143 C2         59.9300   61.3900   62.1800 c3      1239 PP      -0.006100
  11144 C1         58.9700   60.9900   61.0600 c3      1239 PP       0.076800
  11145 CB         58.8700   59.4500   60.8800 c3      1239 PP      -0.265900
  11146 H21        59.5700   60.9400   63.1100 hc      1239 PP       0.001900
  11147 H22        59.8600   62.4800   62.2200 hc      1239 PP       0.001900
  11148 H1         59.3200   61.3500   60.0900 hc      1239 PP       0.001800
  11149 HB1        58.5200   58.9900   61.8100 hc      1239 PP       0.063200
  11150 HB2        58.2900   59.2500   59.9700 hc      1239 PP       0.063200
  11151 HB3        59.8500   58.9600   60.8500 hc      1239 PP       0.063200
  11152 C2         57.6100   61.6500   61.3500 c3      1240 PP      -0.006100
  11153 C1         57.2400   62.8200   60.3000 c3      1240 PP       0.076800
  11154 CB         55.8000   62.7500   59.7200 c3      1240 PP      -0.265900
  11155 H21        56.8500   60.8600   61.2800 hc      1240 PP       0.001900
  11156 H22        57.4200   62.0300   62.3700 hc      1240 PP       0.001900
  11157 H1         57.9200   62.6400   59.4600 hc      1240 PP       0.001800
  11158 HB1        55.7600   61.9400   58.9800 hc      1240 PP       0.063200
  11159 HB2        55.0300   62.5700   60.4800 hc      1240 PP       0.063200
  11160 HB3        55.5300   63.7200   59.2900 hc      1240 PP       0.063200
  11161 C2         57.5400   64.2400   60.8800 c3      1241 PP      -0.006100
  11162 C1         57.5700   65.5100   59.8400 c3      1241 PP       0.076800
  11163 CB         57.8500   66.8400   60.6500 c3      1241 PP      -0.265900
  11164 H21        56.7100   64.3200   61.6000 hc      1241 PP       0.001900
  11165 H22        58.4100   64.1700   61.5400 hc      1241 PP       0.001900
  11166 H1         56.5700   65.5900   59.3900 hc      1241 PP       0.001800
  11167 HB1        58.9100   66.9900   60.8900 hc      1241 PP       0.063200
  11168 HB2        57.4700   67.7200   60.1200 hc      1241 PP       0.063200
  11169 HB3        57.4000   66.7700   61.6500 hc      1241 PP       0.063200
  11170 C2         58.5400   65.3000   58.5600 c3      1242 PP      -0.006100
  11171 C1         60.1000   65.4600   58.7800 c3      1242 PP       0.076800
  11172 CB         60.6700   64.2400   59.4400 c3      1242 PP      -0.265900
  11173 H21        58.4500   64.2900   58.1500 hc      1242 PP       0.001900
  11174 H22        58.2700   66.0200   57.7800 hc      1242 PP       0.001900
  11175 H1         60.2600   66.2800   59.4900 hc      1242 PP       0.001800
  11176 HB1        60.2200   63.9800   60.4000 hc      1242 PP       0.063200
  11177 HB2        60.8100   63.3400   58.8200 hc      1242 PP       0.063200
  11178 HB3        61.6700   64.6300   59.6800 hc      1242 PP       0.063200
  11179 C2         60.9200   65.8800   57.5500 c3      1243 PP      -0.006100
  11180 C1         62.1600   66.6800   58.1100 c3      1243 PP       0.076800
  11181 CB         63.4200   65.9200   57.5300 c3      1243 PP      -0.265900
  11182 H21        61.2000   65.0700   56.8700 hc      1243 PP       0.001900
  11183 H22        60.2800   66.5100   56.9200 hc      1243 PP       0.001900
  11184 H1         62.3000   66.6100   59.2000 hc      1243 PP       0.001800
  11185 HB1        64.3900   66.3300   57.8300 hc      1243 PP       0.063200
  11186 HB2        63.3900   64.9000   57.9100 hc      1243 PP       0.063200
  11187 HB3        63.2600   65.9400   56.4400 hc      1243 PP       0.063200
  11188 C2         62.1700   68.1600   57.5300 c3      1244 PP      -0.006100
  11189 C1         61.2800   69.1900   58.2100 c3      1244 PP       0.076800
  11190 CB         59.7700   68.9800   57.7700 c3      1244 PP      -0.265900
  11191 H21        63.2100   68.4900   57.4300 hc      1244 PP       0.001900
  11192 H22        61.8700   67.9900   56.4800 hc      1244 PP       0.001900
  11193 H1         61.5000   70.1200   57.6600 hc      1244 PP       0.001800
  11194 HB1        59.2200   68.2400   58.3700 hc      1244 PP       0.063200
  11195 HB2        59.1500   69.8800   57.8200 hc      1244 PP       0.063200
  11196 HB3        59.7100   68.5900   56.7500 hc      1244 PP       0.063200
  11197 C2         61.4400   69.3600   59.7700 c3      1245 PP      -0.006100
  11198 C1         62.9000   69.5900   60.2000 c3      1245 PP       0.076800
  11199 CB         63.7000   70.5000   59.1300 c3      1245 PP      -0.265900
  11200 H21        60.8700   70.2700   59.9800 hc      1245 PP       0.001900
  11201 H22        60.8900   68.5300   60.2300 hc      1245 PP       0.001900
  11202 H1         63.5500   68.7100   60.2700 hc      1245 PP       0.001800
  11203 HB1        64.3600   71.2200   59.6200 hc      1245 PP       0.063200
  11204 HB2        64.4300   69.9400   58.5300 hc      1245 PP       0.063200
  11205 HB3        63.0500   71.1400   58.5300 hc      1245 PP       0.063200
  11206 C2         63.0600   70.2100   61.5900 c3      1246 PP      -0.006100
  11207 C1         62.2900   69.5300   62.7700 c3      1246 PP       0.076800
  11208 CB         62.4200   67.9200   62.7800 c3      1246 PP      -0.265900
  11209 H21        64.1500   70.2500   61.7400 hc      1246 PP       0.001900
  11210 H22        62.6700   71.2400   61.6000 hc      1246 PP       0.001900
  11211 H1         61.2700   69.9200   62.6400 hc      1246 PP       0.001800
  11212 HB1        61.8700   67.4700   63.6100 hc      1246 PP       0.063200
  11213 HB2        62.1900   67.4300   61.8200 hc      1246 PP       0.063200
  11214 HB3        63.4800   67.6500   62.8600 hc      1246 PP       0.063200
  11215 C2         62.8000   70.0000   64.2000 c3      1247 PP      -0.006100
  11216 C1         61.6900   69.8700   65.3500 c3      1247 PP       0.076800
  11217 CB         62.5800   69.7800   66.6800 c3      1247 PP      -0.265900
  11218 H21        63.7400   69.4900   64.4600 hc      1247 PP       0.001900
  11219 H22        63.0900   71.0500   64.1300 hc      1247 PP       0.001900
  11220 H1         61.2100   68.8800   65.3000 hc      1247 PP       0.001800
  11221 HB1        63.1300   68.8400   66.8100 hc      1247 PP       0.063200
  11222 HB2        63.2800   70.6100   66.8400 hc      1247 PP       0.063200
  11223 HB3        61.8900   69.8100   67.5300 hc      1247 PP       0.063200
  11224 C2         60.6400   71.0700   65.3600 c3      1248 PP      -0.006100
  11225 C1         59.5900   70.9500   66.5100 c3      1248 PP       0.076800
  11226 CB         58.6500   72.1800   66.5900 c3      1248 PP      -0.265900
  11227 H21        61.0900   72.0500   65.5800 hc      1248 PP       0.001900
  11228 H22        60.1700   71.1500   64.3700 hc      1248 PP       0.001900
  11229 H1         60.1300   71.0300   67.4600 hc      1248 PP       0.001800
  11230 HB1        58.3200   72.4800   65.5900 hc      1248 PP       0.063200
  11231 HB2        57.8200   71.8800   67.2500 hc      1248 PP       0.063200
  11232 HB3        59.2000   72.9300   67.1700 hc      1248 PP       0.063200
  11233 C2         58.6800   69.6100   66.5500 c3      1249 PP      -0.006100
  11234 C1         57.6900   69.2900   65.4100 c3      1249 PP       0.076800
  11235 CB         58.4400   68.7600   64.1400 c3      1249 PP      -0.265900
  11236 H21        59.3700   68.7600   66.6400 hc      1249 PP       0.001900
  11237 H22        58.1400   69.5700   67.5100 hc      1249 PP       0.001900
  11238 H1         57.1500   70.2300   65.3100 hc      1249 PP       0.001800
  11239 HB1        58.9600   67.8100   64.3200 hc      1249 PP       0.063200
  11240 HB2        57.6800   68.5800   63.3700 hc      1249 PP       0.063200
  11241 HB3        59.2000   69.4600   63.8000 hc      1249 PP       0.063200
  11242 C2         56.6100   68.2000   65.8400 c3      1250 PP      -0.006100
  11243 C1         55.3200   68.1600   65.0700 c3      1250 PP       0.076800
  11244 CB         55.4000   67.2500   63.8400 c3      1250 PP      -0.265900
  11245 H21        57.1800   67.2800   65.9800 hc      1250 PP       0.001900
  11246 H22        56.4400   68.4200   66.9000 hc      1250 PP       0.001900
  11247 H1         55.2100   69.2200   64.8000 hc      1250 PP       0.001800
  11248 HB1        54.3600   67.0900   63.5300 hc      1250 PP       0.063200
  11249 HB2        55.9000   67.7800   63.0200 hc      1250 PP       0.063200
  11250 HB3        55.9300   66.3000   64.0000 hc      1250 PP       0.063200
  11251 C2         54.1200   67.6200   65.9900 c3      1251 PP      -0.006100
  11252 C1         52.6500   68.3100   65.8200 c3      1251 PP       0.076800
  11253 CB         51.4400   67.4100   66.2400 c3      1251 PP      -0.265900
  11254 H21        54.0100   66.5400   65.8500 hc      1251 PP       0.001900
  11255 H22        54.4300   67.7400   67.0400 hc      1251 PP       0.001900
  11256 H1         52.4700   68.3700   64.7400 hc      1251 PP       0.001800
  11257 HB1        50.4600   67.8600   66.0500 hc      1251 PP       0.063200
  11258 HB2        51.5300   66.4400   65.7400 hc      1251 PP       0.063200
  11259 HB3        51.3300   67.2200   67.3100 hc      1251 PP       0.063200
  11260 C2         52.4600   69.7000   66.4400 c3      1252 PP      -0.006100
  11261 C1         52.0000   70.8500   65.5200 c3      1252 PP       0.076800
  11262 CB         50.6000   70.5000   64.8900 c3      1252 PP      -0.265900
  11263 H21        51.7900   69.6100   67.3100 hc      1252 PP       0.001900
  11264 H22        53.4400   69.9800   66.8300 hc      1252 PP       0.001900
  11265 H1         52.7500   70.9900   64.7300 hc      1252 PP       0.001800
  11266 HB1        50.5700   69.5300   64.3800 hc      1252 PP       0.063200
  11267 HB2        49.8400   70.6200   65.6700 hc      1252 PP       0.063200
  11268 HB3        50.3400   71.1900   64.0800 hc      1252 PP       0.063200
  11269 C2         51.9100   72.2100   66.3100 c3      1253 PP      -0.006100
  11270 C1         53.2000   73.1500   66.1900 c3      1253 PP       0.076800
  11271 CB         54.4900   72.3600   66.3300 c3      1253 PP      -0.265900
  11272 H21        51.0600   72.8200   65.9800 hc      1253 PP       0.001900
  11273 H22        51.6700   71.8900   67.3300 hc      1253 PP       0.001900
  11274 H1         53.0900   73.9500   66.9300 hc      1253 PP       0.001800
  11275 HB1        55.3300   73.0400   66.1500 hc      1253 PP       0.063200
  11276 HB2        54.5600   72.0000   67.3700 hc      1253 PP       0.063200
  11277 HB3        54.5800   71.5100   65.6300 hc      1253 PP       0.063200
  11278 C2         53.3200   73.8700   64.8000 c3      1254 PP      -0.006100
  11279 C1         54.5000   74.9500   64.6300 c3      1254 PP       0.076800
  11280 CB         54.0100   75.8300   63.4300 c3      1254 PP      -0.265900
  11281 H21        53.5300   73.1100   64.0400 hc      1254 PP       0.001900
  11282 H22        52.3200   74.1500   64.4200 hc      1254 PP       0.001900
  11283 H1         55.4500   74.4700   64.3700 hc      1254 PP       0.001800
  11284 HB1        54.8300   76.5500   63.2600 hc      1254 PP       0.063200
  11285 HB2        53.7900   75.2500   62.5200 hc      1254 PP       0.063200
  11286 HB3        53.1300   76.4200   63.7000 hc      1254 PP       0.063200
  11287 C2         54.7700   75.8400   65.8600 c3      1255 PP      -0.006100
  11288 C1         56.0600   76.7200   65.7200 c3      1255 PP       0.076800
  11289 CB         55.9700   77.9900   66.5300 c3      1255 PP      -0.265900
  11290 H21        53.8800   76.4000   66.1700 hc      1255 PP       0.001900
  11291 H22        55.0400   75.2000   66.7100 hc      1255 PP       0.001900
  11292 H1         56.2300   77.0900   64.7000 hc      1255 PP       0.001800
  11293 HB1        55.1600   78.5400   66.0400 hc      1255 PP       0.063200
  11294 HB2        55.8500   77.7600   67.6000 hc      1255 PP       0.063200
  11295 HB3        56.9000   78.5500   66.4000 hc      1255 PP       0.063200
  11296 C2         57.2500   75.7800   66.0700 c3      1256 PP      -0.006100
  11297 C1         58.6700   76.3300   65.6100 c3      1256 PP       0.076800
  11298 CB         59.5900   76.5200   66.8900 c3      1256 PP      -0.265900
  11299 H21        57.2900   75.6300   67.1500 hc      1256 PP       0.001900
  11300 H22        57.1300   74.8100   65.5700 hc      1256 PP       0.001900
  11301 H1         58.6700   77.3500   65.2300 hc      1256 PP       0.001800
  11302 HB1        59.1300   77.2300   67.5900 hc      1256 PP       0.063200
  11303 HB2        59.8500   75.5400   67.3100 hc      1256 PP       0.063200
  11304 HB3        60.5100   77.1000   66.7500 hc      1256 PP       0.063200
  11305 C2         59.4200   75.4200   64.5900 c3      1257 PP      -0.006100
  11306 C1         58.6100   75.2600   63.2600 c3      1257 PP       0.076800
  11307 CB         58.3400   76.5400   62.4900 c3      1257 PP      -0.265900
  11308 H21        60.4200   75.8300   64.4200 hc      1257 PP       0.001900
  11309 H22        59.5500   74.3900   64.9500 hc      1257 PP       0.001900
  11310 H1         57.6200   74.8000   63.3900 hc      1257 PP       0.001800
  11311 HB1        59.2200   77.0600   62.1100 hc      1257 PP       0.063200
  11312 HB2        57.5900   76.2900   61.7400 hc      1257 PP       0.063200
  11313 HB3        57.8900   77.2600   63.1900 hc      1257 PP       0.063200
  11314 C2         59.2800   74.2000   62.3300 c3      1258 PP      -0.006100
  11315 C1         60.8200   74.3700   61.7900 c3      1258 PP       0.076800
  11316 CB         61.9300   73.9200   62.8300 c3      1258 PP      -0.265900
  11317 H21        59.3200   73.2200   62.8300 hc      1258 PP       0.001900
  11318 H22        58.6100   73.8200   61.5500 hc      1258 PP       0.001900
  11319 H1         61.0400   75.4200   61.5700 hc      1258 PP       0.001800
  11320 HB1        62.0500   74.6900   63.6000 hc      1258 PP       0.063200
  11321 HB2        61.7100   72.9600   63.3100 hc      1258 PP       0.063200
  11322 HB3        62.9200   73.9300   62.3600 hc      1258 PP       0.063200
  11323 C2         61.0800   73.5200   60.5200 c3      1259 PP      -0.006100
  11324 C1         60.5000   74.1600   59.1600 c3      1259 PP       0.076800
  11325 CB         61.4500   75.3500   58.7400 c3      1259 PP      -0.265900
  11326 H21        62.1600   73.4200   60.3700 hc      1259 PP       0.001900
  11327 H22        60.6400   72.5100   60.6100 hc      1259 PP       0.001900
  11328 H1         59.5200   74.5200   59.4800 hc      1259 PP       0.001800
  11329 HB1        62.3800   74.9400   58.3300 hc      1259 PP       0.063200
  11330 HB2        60.9700   75.9000   57.9200 hc      1259 PP       0.063200
  11331 HB3        61.6700   76.0400   59.5600 hc      1259 PP       0.063200
  11332 C2         60.3400   73.0300   58.0700 c3      1260 PP      -0.006100
  11333 C1         59.8600   73.5800   56.7500 c3      1260 PP       0.076800
  11334 CB         59.5300   72.5000   55.7300 c3      1260 PP      -0.265900
  11335 H21        59.6900   72.2300   58.4400 hc      1260 PP       0.001900
  11336 H22        61.2900   72.5000   58.0000 hc      1260 PP       0.001900
  11337 H1         58.9800   74.1900   56.9700 hc      1260 PP       0.001800
  11338 HB1        60.4300   72.2200   55.1800 hc      1260 PP       0.063200
  11339 HB2        59.0200   71.6100   56.1400 hc      1260 PP       0.063200
  11340 HB3        58.9000   72.9300   54.9400 hc      1260 PP       0.063200
  11341 C2         63.1900   37.1600   50.0300 c3      1261 PP      -0.006100
  11342 C1         62.9300   37.4200   51.4900 c3      1261 PP       0.076800
  11343 CB         61.7100   38.2700   51.8600 c3      1261 PP      -0.265900
  11344 H21        62.3500   36.6200   49.5700 hc      1261 PP       0.001900
  11345 H22        63.0700   38.1100   49.5000 hc      1261 PP       0.001900
  11346 H1         63.7800   38.0300   51.8300 hc      1261 PP       0.001800
  11347 HB1        61.8900   39.2900   51.5000 hc      1261 PP       0.063200
  11348 HB2        60.7600   37.8600   51.5100 hc      1261 PP       0.063200
  11349 HB3        61.6400   38.3600   52.9500 hc      1261 PP       0.063200
  11350 C2         62.9200   35.9900   52.2700 c3      1262 PP      -0.006100
  11351 C1         64.3500   35.4000   52.2700 c3      1262 PP       0.076800
  11352 CB         65.1200   36.0000   53.4900 c3      1262 PP      -0.265900
  11353 H21        62.6200   36.0400   53.3300 hc      1262 PP       0.001900
  11354 H22        62.2600   35.2700   51.7800 hc      1262 PP       0.001900
  11355 H1         64.8200   35.6800   51.3300 hc      1262 PP       0.001800
  11356 HB1        65.1900   37.0800   53.3300 hc      1262 PP       0.063200
  11357 HB2        64.5700   35.7700   54.4100 hc      1262 PP       0.063200
  11358 HB3        66.1700   35.7300   53.6500 hc      1262 PP       0.063200
  11359 C2         64.3200   33.8600   52.5700 c3      1263 PP      -0.006100
  11360 C1         63.6500   32.9200   51.5400 c3      1263 PP       0.076800
  11361 CB         63.9500   33.4000   50.0600 c3      1263 PP      -0.265900
  11362 H21        65.3600   33.4900   52.5800 hc      1263 PP       0.001900
  11363 H22        63.8400   33.6100   53.5200 hc      1263 PP       0.001900
  11364 H1         62.5500   32.8900   51.5500 hc      1263 PP       0.001800
  11365 HB1        64.8000   34.0800   49.9200 hc      1263 PP       0.063200
  11366 HB2        64.2600   32.5200   49.4700 hc      1263 PP       0.063200
  11367 HB3        63.0900   33.8200   49.5300 hc      1263 PP       0.063200
  11368 C2         64.1500   31.4700   51.8500 c3      1264 PP      -0.006100
  11369 C1         63.3100   30.2800   51.2000 c3      1264 PP       0.076800
  11370 CB         64.1300   29.0600   51.1400 c3      1264 PP      -0.265900
  11371 H21        65.2000   31.3600   51.5800 hc      1264 PP       0.001900
  11372 H22        64.1900   31.4000   52.9400 hc      1264 PP       0.001900
  11373 H1         63.1800   30.6500   50.1800 hc      1264 PP       0.001800
  11374 HB1        63.8700   28.4100   50.2900 hc      1264 PP       0.063200
  11375 HB2        65.1500   29.3200   50.8400 hc      1264 PP       0.063200
  11376 HB3        64.1400   28.4900   52.0800 hc      1264 PP       0.063200
  11377 C2         61.9700   30.0100   51.9300 c3      1265 PP      -0.006100
  11378 C1         60.8100   29.3100   51.1300 c3      1265 PP       0.076800
  11379 CB         60.6300   30.0600   49.7900 c3      1265 PP      -0.265900
  11380 H21        62.1900   29.5300   52.9000 hc      1265 PP       0.001900
  11381 H22        61.6100   31.0000   52.2300 hc      1265 PP       0.001900
  11382 H1         59.9200   29.4500   51.7600 hc      1265 PP       0.001800
  11383 HB1        59.5500   29.9900   49.5800 hc      1265 PP       0.063200
  11384 HB2        60.9200   31.1200   49.8400 hc      1265 PP       0.063200
  11385 HB3        61.2700   29.6100   49.0300 hc      1265 PP       0.063200
  11386 C2         60.9500   27.8300   51.0200 c3      1266 PP      -0.006100
  11387 C1         59.8500   26.9600   50.4100 c3      1266 PP       0.076800
  11388 CB         60.3600   25.5400   50.1100 c3      1266 PP      -0.265900
  11389 H21        61.7200   27.5100   50.3100 hc      1266 PP       0.001900
  11390 H22        61.3600   27.4100   51.9500 hc      1266 PP       0.001900
  11391 H1         59.6900   27.3200   49.3900 hc      1266 PP       0.001800
  11392 HB1        59.5400   24.8600   49.8600 hc      1266 PP       0.063200
  11393 HB2        61.0600   25.6100   49.2700 hc      1266 PP       0.063200
  11394 HB3        60.9100   25.0900   50.9400 hc      1266 PP       0.063200
  11395 C2         58.4900   26.8700   51.1900 c3      1267 PP      -0.006100
  11396 C1         58.5700   26.1700   52.6600 c3      1267 PP       0.076800
  11397 CB         58.8500   27.1800   53.8100 c3      1267 PP      -0.265900
  11398 H21        58.0200   27.8500   51.3500 hc      1267 PP       0.001900
  11399 H22        57.7800   26.3900   50.5200 hc      1267 PP       0.001900
  11400 H1         59.3900   25.4400   52.6400 hc      1267 PP       0.001800
  11401 HB1        59.8300   27.6200   53.6300 hc      1267 PP       0.063200
  11402 HB2        58.1200   28.0000   53.8200 hc      1267 PP       0.063200
  11403 HB3        58.9900   26.7100   54.7900 hc      1267 PP       0.063200
  11404 C2         57.2600   25.2800   53.0100 c3      1268 PP      -0.006100
  11405 C1         57.1300   23.9600   52.2000 c3      1268 PP       0.076800
  11406 CB         58.2700   22.9800   52.5200 c3      1268 PP      -0.265900
  11407 H21        57.1400   25.2100   54.1000 hc      1268 PP       0.001900
  11408 H22        56.4500   25.9100   52.6400 hc      1268 PP       0.001900
  11409 H1         57.2100   24.1900   51.1300 hc      1268 PP       0.001800
  11410 HB1        59.2800   23.3900   52.6100 hc      1268 PP       0.063200
  11411 HB2        58.1200   22.3900   53.4300 hc      1268 PP       0.063200
  11412 HB3        58.3400   22.2700   51.6800 hc      1268 PP       0.063200
  11413 C2         55.7400   23.2500   52.3300 c3      1269 PP      -0.006100
  11414 C1         54.9600   22.8000   50.9800 c3      1269 PP       0.076800
  11415 CB         54.6800   24.1300   50.1200 c3      1269 PP      -0.265900
  11416 H21        55.7200   22.4700   53.1000 hc      1269 PP       0.001900
  11417 H22        55.1200   23.9900   52.8700 hc      1269 PP       0.001900
  11418 H1         54.0200   22.3200   51.2700 hc      1269 PP       0.001800
  11419 HB1        54.4000   24.9700   50.7600 hc      1269 PP       0.063200
  11420 HB2        55.6100   24.3900   49.5900 hc      1269 PP       0.063200
  11421 HB3        53.8800   23.9000   49.4000 hc      1269 PP       0.063200
  11422 C2         55.7500   21.7200   50.2100 c3      1270 PP      -0.006100
  11423 C1         55.7400   20.3600   51.0100 c3      1270 PP       0.076800
  11424 CB         54.4200   19.6400   50.6900 c3      1270 PP      -0.265900
  11425 H21        55.3900   21.5300   49.1900 hc      1270 PP       0.001900
  11426 H22        56.7900   22.0400   50.1300 hc      1270 PP       0.001900
  11427 H1         55.7600   20.5100   52.1000 hc      1270 PP       0.001800
  11428 HB1        53.5200   20.2500   50.5800 hc      1270 PP       0.063200
  11429 HB2        54.5200   18.8900   49.9000 hc      1270 PP       0.063200
  11430 HB3        54.2100   19.0000   51.5500 hc      1270 PP       0.063200
  11431 C2         57.0000   19.5400   50.5400 c3      1271 PP      -0.006100
  11432 C1         57.4900   18.4600   51.6300 c3      1271 PP       0.076800
  11433 CB         58.6500   17.6900   50.9700 c3      1271 PP      -0.265900
  11434 H21        56.7700   18.9500   49.6400 hc      1271 PP       0.001900
  11435 H22        57.8200   20.2200   50.2900 hc      1271 PP       0.001900
  11436 H1         56.8100   17.6100   51.7200 hc      1271 PP       0.001800
  11437 HB1        58.3400   17.2900   49.9900 hc      1271 PP       0.063200
  11438 HB2        59.5100   18.3200   50.7000 hc      1271 PP       0.063200
  11439 HB3        59.0200   16.7800   51.4700 hc      1271 PP       0.063200
  11440 C2         57.7600   19.1100   53.0500 c3      1272 PP      -0.006100
  11441 C1         58.3900   18.2500   54.0800 c3      1272 PP       0.076800
  11442 CB         59.2800   19.0900   55.0800 c3      1272 PP      -0.265900
  11443 H21        58.3400   20.0100   52.8100 hc      1272 PP       0.001900
  11444 H22        56.8200   19.4300   53.5200 hc      1272 PP       0.001900
  11445 H1         59.1100   17.5900   53.5800 hc      1272 PP       0.001800
  11446 HB1        59.8200   18.4600   55.8000 hc      1272 PP       0.063200
  11447 HB2        59.9900   19.6900   54.4900 hc      1272 PP       0.063200
  11448 HB3        58.6500   19.8600   55.5300 hc      1272 PP       0.063200
  11449 C2         57.4700   17.4400   55.0500 c3      1273 PP      -0.006100
  11450 C1         56.6700   16.2300   54.4400 c3      1273 PP       0.076800
  11451 CB         57.5500   15.3200   53.5800 c3      1273 PP      -0.265900
  11452 H21        58.1100   17.0700   55.8600 hc      1273 PP       0.001900
  11453 H22        56.8400   18.1800   55.5400 hc      1273 PP       0.001900
  11454 H1         55.8800   16.6600   53.8100 hc      1273 PP       0.001800
  11455 HB1        58.5700   15.2500   54.0000 hc      1273 PP       0.063200
  11456 HB2        57.2200   14.2900   53.4600 hc      1273 PP       0.063200
  11457 HB3        57.5200   15.5000   52.5000 hc      1273 PP       0.063200
  11458 C2         56.0100   15.3900   55.5400 c3      1274 PP      -0.006100
  11459 C1         54.9200   16.0600   56.4900 c3      1274 PP       0.076800
  11460 CB         53.6000   16.2400   55.6700 c3      1274 PP      -0.265900
  11461 H21        55.5100   14.5700   55.0200 hc      1274 PP       0.001900
  11462 H22        56.8800   15.0600   56.1300 hc      1274 PP       0.001900
  11463 H1         55.1700   17.0800   56.7900 hc      1274 PP       0.001800
  11464 HB1        53.1200   15.2500   55.5800 hc      1274 PP       0.063200
  11465 HB2        53.1000   17.0300   56.2400 hc      1274 PP       0.063200
  11466 HB3        53.9100   16.6200   54.6900 hc      1274 PP       0.063200
  11467 C2         54.6900   15.2700   57.8500 c3      1275 PP      -0.006100
  11468 C1         55.5000   15.6900   59.1300 c3      1275 PP       0.076800
  11469 CB         57.0000   15.3800   59.0500 c3      1275 PP      -0.265900
  11470 H21        53.6100   15.3000   58.0100 hc      1275 PP       0.001900
  11471 H22        54.9100   14.2100   57.6600 hc      1275 PP       0.001900
  11472 H1         55.2100   15.1200   60.0200 hc      1275 PP       0.001800
  11473 HB1        57.2000   14.4100   58.5900 hc      1275 PP       0.063200
  11474 HB2        57.6700   16.0600   58.5200 hc      1275 PP       0.063200
  11475 HB3        57.4300   15.4400   60.0600 hc      1275 PP       0.063200
  11476 C2         55.3400   17.2100   59.3900 c3      1276 PP      -0.006100
  11477 C1         53.8300   17.7400   59.4900 c3      1276 PP       0.076800
  11478 CB         53.0400   16.8400   60.4500 c3      1276 PP      -0.265900
  11479 H21        55.8600   17.3800   60.3400 hc      1276 PP       0.001900
  11480 H22        55.7900   17.8400   58.6000 hc      1276 PP       0.001900
  11481 H1         53.2500   17.6000   58.5600 hc      1276 PP       0.001800
  11482 HB1        53.5600   16.6800   61.4000 hc      1276 PP       0.063200
  11483 HB2        52.0300   17.2700   60.5400 hc      1276 PP       0.063200
  11484 HB3        52.9000   15.8200   60.0600 hc      1276 PP       0.063200
  11485 C2         53.7200   19.2700   59.8600 c3      1277 PP      -0.006100
  11486 C1         53.5300   20.2600   58.5800 c3      1277 PP       0.076800
  11487 CB         53.5900   21.7700   59.2800 c3      1277 PP      -0.265900
  11488 H21        53.0700   19.4800   60.7200 hc      1277 PP       0.001900
  11489 H22        54.6700   19.4900   60.3600 hc      1277 PP       0.001900
  11490 H1         52.5400   20.1800   58.1000 hc      1277 PP       0.001800
  11491 HB1        53.4400   22.6300   58.6200 hc      1277 PP       0.063200
  11492 HB2        52.9200   21.8700   60.1500 hc      1277 PP       0.063200
  11493 HB3        54.5400   21.7100   59.8200 hc      1277 PP       0.063200
  11494 C2         54.6400   20.0600   57.5400 c3      1278 PP      -0.006100
  11495 C1         54.5200   21.0800   56.3200 c3      1278 PP       0.076800
  11496 CB         56.0100   21.6900   55.9900 c3      1278 PP      -0.265900
  11497 H21        55.6900   19.9900   57.8600 hc      1278 PP       0.001900
  11498 H22        54.5100   19.1100   57.0100 hc      1278 PP       0.001900
  11499 H1         53.7800   21.8300   56.6500 hc      1278 PP       0.001800
  11500 HB1        56.3800   22.2500   56.8600 hc      1278 PP       0.063200
  11501 HB2        56.7000   20.9000   55.6600 hc      1278 PP       0.063200
  11502 HB3        55.9900   22.5500   55.3100 hc      1278 PP       0.063200
  11503 C2         54.0400   20.4600   55.0200 c3      1279 PP      -0.006100
  11504 C1         52.5200   20.0600   54.9500 c3      1279 PP       0.076800
  11505 CB         51.6400   21.3400   55.2400 c3      1279 PP      -0.265900
  11506 H21        54.1400   21.1300   54.1600 hc      1279 PP       0.001900
  11507 H22        54.6400   19.5600   54.8200 hc      1279 PP       0.001900
  11508 H1         52.2200   19.2100   55.5700 hc      1279 PP       0.001800
  11509 HB1        51.6700   21.5400   56.3200 hc      1279 PP       0.063200
  11510 HB2        51.8700   22.2000   54.5900 hc      1279 PP       0.063200
  11511 HB3        50.5700   21.2000   55.0500 hc      1279 PP       0.063200
  11512 C2         52.2300   19.5400   53.5200 c3      1280 PP      -0.006100
  11513 C1         50.8500   18.7900   53.2900 c3      1280 PP       0.076800
  11514 CB         50.2900   18.0600   54.5100 c3      1280 PP      -0.265900
  11515 H21        52.4900   20.2300   52.7000 hc      1280 PP       0.001900
  11516 H22        52.9700   18.7400   53.3800 hc      1280 PP       0.001900
  11517 H1         50.9700   18.0000   52.5400 hc      1280 PP       0.001800
  11518 HB1        49.9900   18.7600   55.3100 hc      1280 PP       0.063200
  11519 HB2        49.3600   17.5600   54.2100 hc      1280 PP       0.063200
  11520 HB3        50.9900   17.3100   54.8900 hc      1280 PP       0.063200
  11521 C2         49.7400   19.7300   52.7200 c3      1281 PP      -0.006100
  11522 C1         50.1200   20.4300   51.3100 c3      1281 PP       0.076800
  11523 CB         50.3900   19.3600   50.1800 c3      1281 PP      -0.265900
  11524 H21        48.8400   19.1400   52.5200 hc      1281 PP       0.001900
  11525 H22        49.5400   20.5300   53.4500 hc      1281 PP       0.001900
  11526 H1         51.1200   20.8800   51.3800 hc      1281 PP       0.001800
  11527 HB1        51.2400   18.7100   50.4200 hc      1281 PP       0.063200
  11528 HB2        49.6100   18.6100   50.0400 hc      1281 PP       0.063200
  11529 HB3        50.6900   19.7800   49.2100 hc      1281 PP       0.063200
  11530 C2         49.1000   21.4800   50.8500 c3      1282 PP      -0.006100
  11531 C1         49.5300   22.9900   50.9200 c3      1282 PP       0.076800
  11532 CB         48.6000   23.9200   50.1300 c3      1282 PP      -0.265900
  11533 H21        48.8600   21.3300   49.7900 hc      1282 PP       0.001900
  11534 H22        48.1300   21.3400   51.3300 hc      1282 PP       0.001900
  11535 H1         50.4300   23.0100   50.3000 hc      1282 PP       0.001800
  11536 HB1        49.0700   24.8900   49.9300 hc      1282 PP       0.063200
  11537 HB2        48.3400   23.4500   49.1700 hc      1282 PP       0.063200
  11538 HB3        47.6500   24.0800   50.6500 hc      1282 PP       0.063200
  11539 C2         49.9800   23.4000   52.3600 c3      1283 PP      -0.006100
  11540 C1         50.2300   24.8200   52.7800 c3      1283 PP       0.076800
  11541 CB         50.2200   24.8600   54.3400 c3      1283 PP      -0.265900
  11542 H21        49.2100   22.9200   52.9700 hc      1283 PP       0.001900
  11543 H22        50.9000   22.8300   52.5600 hc      1283 PP       0.001900
  11544 H1         49.4500   25.5000   52.4400 hc      1283 PP       0.001800
  11545 HB1        49.1900   25.0300   54.6700 hc      1283 PP       0.063200
  11546 HB2        50.7300   24.0000   54.7800 hc      1283 PP       0.063200
  11547 HB3        50.6900   25.7900   54.6900 hc      1283 PP       0.063200
  11548 C2         51.6400   25.2700   52.2300 c3      1284 PP      -0.006100
  11549 C1         51.8700   26.8300   52.2700 c3      1284 PP       0.076800
  11550 CB         53.3900   27.2400   52.0300 c3      1284 PP      -0.265900
  11551 H21        52.4600   24.8100   52.8000 hc      1284 PP       0.001900
  11552 H22        51.6900   24.9400   51.1900 hc      1284 PP       0.001900
  11553 H1         51.4900   27.2800   53.2000 hc      1284 PP       0.001800
  11554 HB1        53.5500   28.2700   52.3700 hc      1284 PP       0.063200
  11555 HB2        54.0400   26.6400   52.6800 hc      1284 PP       0.063200
  11556 HB3        53.6500   27.0800   50.9700 hc      1284 PP       0.063200
  11557 C2         51.0300   27.5100   51.1800 c3      1285 PP      -0.006100
  11558 C1         50.7300   29.0100   51.4100 c3      1285 PP       0.076800
  11559 CB         50.5900   29.6700   50.1100 c3      1285 PP      -0.265900
  11560 H21        51.5400   27.3300   50.2300 hc      1285 PP       0.001900
  11561 H22        50.0200   27.1100   51.0400 hc      1285 PP       0.001900
  11562 H1         51.6500   29.4700   51.8100 hc      1285 PP       0.001800
  11563 HB1        50.6100   30.7500   50.3300 hc      1285 PP       0.063200
  11564 HB2        51.4400   29.5000   49.4400 hc      1285 PP       0.063200
  11565 HB3        49.6200   29.3800   49.7000 hc      1285 PP       0.063200
  11566 C2         49.5000   29.2200   52.3600 c3      1286 PP      -0.006100
  11567 C1         49.6700   30.0200   53.7400 c3      1286 PP       0.076800
  11568 CB         50.3800   29.2500   54.7900 c3      1286 PP      -0.265900
  11569 H21        48.7500   29.7400   51.7600 hc      1286 PP       0.001900
  11570 H22        49.1000   28.2200   52.5900 hc      1286 PP       0.001900
  11571 H1         48.6400   30.2300   54.0500 hc      1286 PP       0.001800
  11572 HB1        50.3300   29.7500   55.7600 hc      1286 PP       0.063200
  11573 HB2        49.9100   28.2900   55.0400 hc      1286 PP       0.063200
  11574 HB3        51.4200   29.0600   54.5000 hc      1286 PP       0.063200
  11575 C2         50.3700   31.3400   53.4800 c3      1287 PP      -0.006100
  11576 C1         49.9100   32.5700   54.3900 c3      1287 PP       0.076800
  11577 CB         48.4300   32.9000   54.2200 c3      1287 PP      -0.265900
  11578 H21        51.4400   31.1100   53.5400 hc      1287 PP       0.001900
  11579 H22        50.3000   31.6000   52.4200 hc      1287 PP       0.001900
  11580 H1         50.4200   33.4200   53.9200 hc      1287 PP       0.001800
  11581 HB1        48.0800   32.9700   53.1800 hc      1287 PP       0.063200
  11582 HB2        47.8000   32.2200   54.8100 hc      1287 PP       0.063200
  11583 HB3        48.2600   33.9200   54.5900 hc      1287 PP       0.063200
  11584 C2         50.3600   32.4600   55.9000 c3      1288 PP      -0.006100
  11585 C1         51.9000   32.2700   56.1400 c3      1288 PP       0.076800
  11586 CB         52.7500   33.4500   55.6400 c3      1288 PP      -0.265900
  11587 H21        50.0000   33.3600   56.4100 hc      1288 PP       0.001900
  11588 H22        49.8100   31.6600   56.4200 hc      1288 PP       0.001900
  11589 H1         52.3700   31.4100   55.6500 hc      1288 PP       0.001800
  11590 HB1        52.5800   33.6600   54.5800 hc      1288 PP       0.063200
  11591 HB2        52.4700   34.4300   56.0600 hc      1288 PP       0.063200
  11592 HB3        53.8200   33.3400   55.8600 hc      1288 PP       0.063200
  11593 C2         52.0900   32.0300   57.7500 c3      1289 PP      -0.006100
  11594 C1         51.3500   32.9800   58.7000 c3      1289 PP       0.076800
  11595 CB         51.4500   32.4900   60.1800 c3      1289 PP      -0.265900
  11596 H21        51.7700   31.0100   57.9800 hc      1289 PP       0.001900
  11597 H22        53.1500   32.1800   57.9800 hc      1289 PP       0.001900
  11598 H1         50.2600   33.0000   58.5400 hc      1289 PP       0.001800
  11599 HB1        51.0900   31.4600   60.2800 hc      1289 PP       0.063200
  11600 HB2        52.4400   32.7300   60.5900 hc      1289 PP       0.063200
  11601 HB3        50.7500   33.0400   60.8200 hc      1289 PP       0.063200
  11602 C2         51.7000   34.5400   58.5700 c3      1290 PP      -0.006100
  11603 C1         53.2500   34.6300   58.5400 c3      1290 PP       0.076800
  11604 CB         53.7700   36.1100   58.5300 c3      1290 PP      -0.265900
  11605 H21        51.3000   35.0600   59.4500 hc      1290 PP       0.001900
  11606 H22        51.3000   35.0800   57.7100 hc      1290 PP       0.001900
  11607 H1         53.8100   34.0900   59.3100 hc      1290 PP       0.001800
  11608 HB1        53.3000   36.7500   59.2900 hc      1290 PP       0.063200
  11609 HB2        54.7700   36.2300   58.9500 hc      1290 PP       0.063200
  11610 HB3        53.6100   36.6000   57.5500 hc      1290 PP       0.063200
  11611 C2         65.3000    1.5900   66.7100 c3      1291 PP      -0.006100
  11612 C1         65.3600    2.7900   65.7200 c3      1291 PP       0.076800
  11613 CB         64.4300    3.9600   66.1300 c3      1291 PP      -0.265900
  11614 H21        64.2500    1.3200   66.8900 hc      1291 PP       0.001900
  11615 H22        65.6500    1.9800   67.6700 hc      1291 PP       0.001900
  11616 H1         64.8500    2.4300   64.8200 hc      1291 PP       0.001800
  11617 HB1        64.4600    3.9800   67.2300 hc      1291 PP       0.063200
  11618 HB2        64.8900    4.8800   65.7400 hc      1291 PP       0.063200
  11619 HB3        63.4200    3.7000   65.7800 hc      1291 PP       0.063200
  11620 C2         66.8100    3.1800   65.3600 c3      1292 PP      -0.006100
  11621 C1         67.7900    1.9900   65.1300 c3      1292 PP       0.076800
  11622 CB         67.0200    0.9600   64.0800 c3      1292 PP      -0.265900
  11623 H21        66.8100    3.7700   64.4400 hc      1292 PP       0.001900
  11624 H22        67.1600    3.8200   66.1800 hc      1292 PP       0.001900
  11625 H1         67.8300    1.3900   66.0500 hc      1292 PP       0.001800
  11626 HB1        66.4900    1.4200   63.2400 hc      1292 PP       0.063200
  11627 HB2        67.7300    0.2200   63.6900 hc      1292 PP       0.063200
  11628 HB3        66.2200    0.4500   64.6400 hc      1292 PP       0.063200
  11629 C2         69.2100    2.3900   64.6200 c3      1293 PP      -0.006100
  11630 C1         70.4400    2.6600   65.5900 c3      1293 PP       0.076800
  11631 CB         70.2600    3.9900   66.2600 c3      1293 PP      -0.265900
  11632 H21        69.6100    1.6000   63.9700 hc      1293 PP       0.001900
  11633 H22        69.1500    3.2500   63.9500 hc      1293 PP       0.001900
  11634 H1         71.3500    2.6500   64.9700 hc      1293 PP       0.001800
  11635 HB1        70.2200    4.8300   65.5500 hc      1293 PP       0.063200
  11636 HB2        69.3200    4.0500   66.8200 hc      1293 PP       0.063200
  11637 HB3        71.0300    4.2600   67.0000 hc      1293 PP       0.063200
  11638 C2         70.5600    1.4800   66.6900 c3      1294 PP      -0.006100
  11639 C1         70.7700    0.0700   66.0500 c3      1294 PP       0.076800
  11640 CB         72.2500   -0.4700   66.0900 c3      1294 PP      -0.265900
  11641 H21        71.4500    1.7100   67.3000 hc      1294 PP       0.001900
  11642 H22        69.6500    1.5200   67.2900 hc      1294 PP       0.001900
  11643 H1         70.5600    0.1700   64.9800 hc      1294 PP       0.001800
  11644 HB1        72.5300   -0.8500   67.0800 hc      1294 PP       0.063200
  11645 HB2        72.4400   -1.1400   65.2400 hc      1294 PP       0.063200
  11646 HB3        72.8900    0.4100   65.9400 hc      1294 PP       0.063200
  11647 C2         69.6300   79.0200   66.5700 c3      1295 PP      -0.006100
  11648 C1         69.6800   77.6600   65.8100 c3      1295 PP       0.076800
  11649 CB         68.6800   76.6400   66.4000 c3      1295 PP      -0.265900
  11650 H21        69.7400   78.7800   67.6300 hc      1295 PP       0.001900
  11651 H22        68.6400   79.4700   66.3700 hc      1295 PP       0.001900
  11652 H1         70.6700   77.2000   65.9500 hc      1295 PP       0.001800
  11653 HB1        68.9300   76.2600   67.4000 hc      1295 PP       0.063200
  11654 HB2        67.7200   77.0900   66.6900 hc      1295 PP       0.063200
  11655 HB3        68.5500   75.7700   65.7500 hc      1295 PP       0.063200
  11656 C2         69.5500   77.8100   64.2500 c3      1296 PP      -0.006100
  11657 C1         69.9200   76.5800   63.3300 c3      1296 PP       0.076800
  11658 CB         69.3100   76.8200   61.9000 c3      1296 PP      -0.265900
  11659 H21        68.5000   78.0400   64.0500 hc      1296 PP       0.001900
  11660 H22        70.1400   78.6300   63.8100 hc      1296 PP       0.001900
  11661 H1         69.2600   75.7400   63.5900 hc      1296 PP       0.001800
  11662 HB1        69.9100   77.4600   61.2500 hc      1296 PP       0.063200
  11663 HB2        69.1500   75.9600   61.2300 hc      1296 PP       0.063200
  11664 HB3        68.3100   77.2100   62.1100 hc      1296 PP       0.063200
  11665 C2         71.4800   76.1000   63.3600 c3      1297 PP      -0.006100
  11666 C1         71.6200   74.7700   64.0600 c3      1297 PP       0.076800
  11667 CB         71.2900   73.5100   63.2000 c3      1297 PP      -0.265900
  11668 H21        71.7900   75.8900   62.3300 hc      1297 PP       0.001900
  11669 H22        72.1300   76.8600   63.8100 hc      1297 PP       0.001900
  11670 H1         70.8300   74.7100   64.8200 hc      1297 PP       0.001800
  11671 HB1        71.2700   72.5700   63.7400 hc      1297 PP       0.063200
  11672 HB2        70.2900   73.7400   62.8000 hc      1297 PP       0.063200
  11673 HB3        71.9300   73.5200   62.3100 hc      1297 PP       0.063200
  11674 C2         72.9900   74.6000   64.7900 c3      1298 PP      -0.006100
  11675 C1         73.0800   75.4400   66.1000 c3      1298 PP       0.076800
  11676 CB         72.1700   74.8500   67.2500 c3      1298 PP      -0.265900
  11677 H21        73.0600   73.5300   65.0200 hc      1298 PP       0.001900
  11678 H22        73.8300   74.8100   64.1100 hc      1298 PP       0.001900
  11679 H1         72.6800   76.4100   65.7800 hc      1298 PP       0.001800
  11680 HB1        72.3100   75.2700   68.2500 hc      1298 PP       0.063200
  11681 HB2        71.1200   75.0100   66.9800 hc      1298 PP       0.063200
  11682 HB3        72.2900   73.7700   67.3300 hc      1298 PP       0.063200
  11683 C2         74.5400   75.6000   66.6100 c3      1299 PP      -0.006100
  11684 C1         75.5300   76.2800   65.6300 c3      1299 PP       0.076800
  11685 CB         75.1900   77.7100   65.1400 c3      1299 PP      -0.265900
  11686 H21        74.5200   76.1500   67.5600 hc      1299 PP       0.001900
  11687 H22        74.9200   74.5800   66.7400 hc      1299 PP       0.001900
  11688 H1         75.6700   75.6000   64.7800 hc      1299 PP       0.001800
  11689 HB1        76.0900   78.0800   64.6200 hc      1299 PP       0.063200
  11690 HB2        74.4100   77.6900   64.3700 hc      1299 PP       0.063200
  11691 HB3        74.9700   78.3800   65.9800 hc      1299 PP       0.063200
  11692 C2         76.8300   76.3800   66.4300 c3      1300 PP      -0.006100
  11693 C1         78.1100   76.1700   65.5700 c3      1300 PP       0.076800
  11694 CB         79.0200   77.3700   65.7600 c3      1300 PP      -0.265900
  11695 H21        76.9200   77.3900   66.8500 hc      1300 PP       0.001900
  11696 H22        76.8400   75.7900   67.3600 hc      1300 PP       0.001900
  11697 H1         77.8500   76.1500   64.5000 hc      1300 PP       0.001800
  11698 HB1        78.7200   78.3200   65.2900 hc      1300 PP       0.063200
  11699 HB2        79.1800   77.7000   66.7900 hc      1300 PP       0.063200
  11700 HB3        79.9900   77.1500   65.3000 hc      1300 PP       0.063200
  11701 C2         78.7600   74.7600   65.8600 c3      1301 PP      -0.006100
  11702 C1         77.8800   73.5800   65.4100 c3      1301 PP       0.076800
  11703 CB         78.2100   73.3000   63.8700 c3      1301 PP      -0.265900
  11704 H21        79.7800   74.7200   65.4600 hc      1301 PP       0.001900
  11705 H22        78.8700   74.7900   66.9500 hc      1301 PP       0.001900
  11706 H1         76.8000   73.8000   65.4000 hc      1301 PP       0.001800
  11707 HB1        77.4300   72.6900   63.4100 hc      1301 PP       0.063200
  11708 HB2        78.3300   74.2100   63.2700 hc      1301 PP       0.063200
  11709 HB3        79.1600   72.7500   63.8200 hc      1301 PP       0.063200
  11710 C2         77.9400   72.2700   66.2700 c3      1302 PP      -0.006100
  11711 C1         77.2100   71.0800   65.7600 c3      1302 PP       0.076800
  11712 CB         77.6800   69.7500   66.4200 c3      1302 PP      -0.265900
  11713 H21        79.0200   72.0700   66.2900 hc      1302 PP       0.001900
  11714 H22        77.6100   72.5100   67.2900 hc      1302 PP       0.001900
  11715 H1         77.2600   70.8800   64.6800 hc      1302 PP       0.001800
  11716 HB1        78.7600   69.6500   66.5500 hc      1302 PP       0.063200
  11717 HB2        77.3100   69.7200   67.4500 hc      1302 PP       0.063200
  11718 HB3        77.3100   68.8400   65.9200 hc      1302 PP       0.063200
  11719 C2         75.6300   71.2500   65.9900 c3      1303 PP      -0.006100
  11720 C1         74.6800   70.4500   65.0600 c3      1303 PP       0.076800
  11721 CB         73.2000   70.3000   65.6300 c3      1303 PP      -0.265900
  11722 H21        75.4100   71.1000   67.0500 hc      1303 PP       0.001900
  11723 H22        75.3900   72.3200   65.9500 hc      1303 PP       0.001900
  11724 H1         75.1600   69.4700   65.1500 hc      1303 PP       0.001800
  11725 HB1        73.2600   70.1800   66.7200 hc      1303 PP       0.063200
  11726 HB2        72.5900   71.1900   65.4100 hc      1303 PP       0.063200
  11727 HB3        72.6300   69.4300   65.2700 hc      1303 PP       0.063200
  11728 C2         74.7300   70.9900   63.5800 c3      1304 PP      -0.006100
  11729 C1         73.8100   70.1800   62.6000 c3      1304 PP       0.076800
  11730 CB         74.0000   70.7800   61.2100 c3      1304 PP      -0.265900
  11731 H21        74.4300   72.0400   63.6700 hc      1304 PP       0.001900
  11732 H22        75.7600   71.0300   63.1900 hc      1304 PP       0.001900
  11733 H1         72.7400   70.1900   62.8600 hc      1304 PP       0.001800
  11734 HB1        73.8100   71.8600   61.2400 hc      1304 PP       0.063200
  11735 HB2        75.0700   70.7100   61.0000 hc      1304 PP       0.063200
  11736 HB3        73.3200   70.4200   60.4400 hc      1304 PP       0.063200
  11737 C2         74.3200   68.6200   62.4200 c3      1305 PP      -0.006100
  11738 C1         73.2600   67.6100   62.0400 c3      1305 PP       0.076800
  11739 CB         71.9400   67.6900   62.7500 c3      1305 PP      -0.265900
  11740 H21        75.1800   68.5700   61.7500 hc      1305 PP       0.001900
  11741 H22        74.7900   68.3000   63.3600 hc      1305 PP       0.001900
  11742 H1         73.7000   66.6100   62.1900 hc      1305 PP       0.001800
  11743 HB1        72.1900   67.7800   63.8200 hc      1305 PP       0.063200
  11744 HB2        71.2300   68.4600   62.4300 hc      1305 PP       0.063200
  11745 HB3        71.4200   66.7400   62.5500 hc      1305 PP       0.063200
  11746 C2         73.1000   67.5700   60.5200 c3      1306 PP      -0.006100
  11747 C1         72.2300   66.4600   59.8700 c3      1306 PP       0.076800
  11748 CB         72.1500   66.7700   58.3800 c3      1306 PP      -0.265900
  11749 H21        72.6900   68.5600   60.3000 hc      1306 PP       0.001900
  11750 H22        74.0500   67.5300   59.9600 hc      1306 PP       0.001900
  11751 H1         71.2200   66.4100   60.2900 hc      1306 PP       0.001800
  11752 HB1        71.6700   67.7300   58.1500 hc      1306 PP       0.063200
  11753 HB2        73.1100   66.6700   57.8600 hc      1306 PP       0.063200
  11754 HB3        71.4700   66.0500   57.9000 hc      1306 PP       0.063200
  11755 C2         72.8600   64.9900   60.0300 c3      1307 PP      -0.006100
  11756 C1         72.0200   63.7600   59.4300 c3      1307 PP       0.076800
  11757 CB         72.9700   62.4900   59.3000 c3      1307 PP      -0.265900
  11758 H21        73.7600   65.1100   59.4100 hc      1307 PP       0.001900
  11759 H22        73.3200   64.7200   60.9900 hc      1307 PP       0.001900
  11760 H1         71.6500   64.0700   58.4400 hc      1307 PP       0.001800
  11761 HB1        73.1900   62.0000   60.2600 hc      1307 PP       0.063200
  11762 HB2        72.6500   61.6600   58.6600 hc      1307 PP       0.063200
  11763 HB3        73.9300   62.9200   59.0000 hc      1307 PP       0.063200
  11764 C2         70.7700   63.4500   60.1700 c3      1308 PP      -0.006100
  11765 C1         69.6000   62.5900   59.5600 c3      1308 PP       0.076800
  11766 CB         68.7000   62.1000   60.6800 c3      1308 PP      -0.265900
  11767 H21        70.9600   63.0100   61.1600 hc      1308 PP       0.001900
  11768 H22        70.3000   64.4000   60.4500 hc      1308 PP       0.001900
  11769 H1         70.1400   61.7400   59.1200 hc      1308 PP       0.001800
  11770 HB1        69.1600   61.9200   61.6600 hc      1308 PP       0.063200
  11771 HB2        67.8700   62.8100   60.7900 hc      1308 PP       0.063200
  11772 HB3        68.3500   61.1200   60.3100 hc      1308 PP       0.063200
  11773 C2         68.8200   63.3000   58.4000 c3      1309 PP      -0.006100
  11774 C1         67.6300   62.3700   57.8200 c3      1309 PP       0.076800
  11775 CB         66.2200   62.8700   58.1600 c3      1309 PP      -0.265900
  11776 H21        68.2400   64.1100   58.8600 hc      1309 PP       0.001900
  11777 H22        69.4800   63.5800   57.5700 hc      1309 PP       0.001900
  11778 H1         67.6800   61.4200   58.3600 hc      1309 PP       0.001800
  11779 HB1        66.1500   63.0600   59.2400 hc      1309 PP       0.063200
  11780 HB2        66.0200   63.7800   57.5800 hc      1309 PP       0.063200
  11781 HB3        65.5400   62.0700   57.8200 hc      1309 PP       0.063200
  11782 C2         67.7200   61.9900   56.2300 c3      1310 PP      -0.006100
  11783 C1         69.1100   61.2400   55.9600 c3      1310 PP       0.076800
  11784 CB         68.8300   59.7700   55.9400 c3      1310 PP      -0.265900
  11785 H21        66.8100   61.4200   55.9900 hc      1310 PP       0.001900
  11786 H22        67.5400   62.8600   55.5900 hc      1310 PP       0.001900
  11787 H1         69.7700   61.4200   56.8100 hc      1310 PP       0.001800
  11788 HB1        68.2100   59.4400   55.1000 hc      1310 PP       0.063200
  11789 HB2        69.8000   59.2600   55.8900 hc      1310 PP       0.063200
  11790 HB3        68.2500   59.4400   56.8100 hc      1310 PP       0.063200
  11791 C2         69.8600   61.6400   54.6700 c3      1311 PP      -0.006100
  11792 C1         70.5500   63.0200   54.6300 c3      1311 PP       0.076800
  11793 CB         71.8900   63.0500   55.4600 c3      1311 PP      -0.265900
  11794 H21        70.6000   60.9100   54.3300 hc      1311 PP       0.001900
  11795 H22        69.0100   61.5900   53.9800 hc      1311 PP       0.001900
  11796 H1         69.8700   63.8000   54.9800 hc      1311 PP       0.001800
  11797 HB1        72.2400   64.0700   55.6500 hc      1311 PP       0.063200
  11798 HB2        71.5700   62.7900   56.4800 hc      1311 PP       0.063200
  11799 HB3        72.6600   62.3800   55.0500 hc      1311 PP       0.063200
  11800 C2         70.7800   63.4300   53.1200 c3      1312 PP      -0.006100
  11801 C1         71.0000   64.9300   52.7800 c3      1312 PP       0.076800
  11802 CB         70.9500   65.0400   51.2500 c3      1312 PP      -0.265900
  11803 H21        71.6600   62.8700   52.7600 hc      1312 PP       0.001900
  11804 H22        69.9000   63.0700   52.5800 hc      1312 PP       0.001900
  11805 H1         71.9900   65.2800   53.1100 hc      1312 PP       0.001800
  11806 HB1        71.5600   64.2200   50.8600 hc      1312 PP       0.063200
  11807 HB2        70.0000   64.8100   50.7400 hc      1312 PP       0.063200
  11808 HB3        71.4600   65.9800   51.0000 hc      1312 PP       0.063200
  11809 C2         69.9300   65.9400   53.4100 c3      1313 PP      -0.006100
  11810 C1         70.2000   66.4900   54.8200 c3      1313 PP       0.076800
  11811 CB         71.5800   67.1500   54.8300 c3      1313 PP      -0.265900
  11812 H21        69.7900   66.8400   52.7900 hc      1313 PP       0.001900
  11813 H22        68.9000   65.5600   53.3600 hc      1313 PP       0.001900
  11814 H1         70.1900   65.6800   55.5600 hc      1313 PP       0.001800
  11815 HB1        71.6100   67.8100   53.9600 hc      1313 PP       0.063200
  11816 HB2        71.6600   67.7000   55.7800 hc      1313 PP       0.063200
  11817 HB3        72.4600   66.4900   54.8500 hc      1313 PP       0.063200
  11818 C2         69.0800   67.5400   55.2100 c3      1314 PP      -0.006100
  11819 C1         67.6300   67.0100   55.4300 c3      1314 PP       0.076800
  11820 CB         67.5500   65.8100   56.4200 c3      1314 PP      -0.265900
  11821 H21        69.4000   68.0400   56.1300 hc      1314 PP       0.001900
  11822 H22        69.0000   68.3000   54.4300 hc      1314 PP       0.001900
  11823 H1         67.3100   66.6300   54.4500 hc      1314 PP       0.001800
  11824 HB1        67.1500   66.1300   57.3900 hc      1314 PP       0.063200
  11825 HB2        66.9600   65.0300   55.9200 hc      1314 PP       0.063200
  11826 HB3        68.5100   65.3700   56.7100 hc      1314 PP       0.063200
  11827 C2         66.6500   68.0700   55.8700 c3      1315 PP      -0.006100
  11828 C1         66.5600   69.2900   54.9100 c3      1315 PP       0.076800
  11829 CB         65.9100   68.9100   53.5800 c3      1315 PP      -0.265900
  11830 H21        65.6700   67.6400   56.1000 hc      1315 PP       0.001900
  11831 H22        67.0200   68.5100   56.8100 hc      1315 PP       0.001900
  11832 H1         67.4900   69.8400   54.7200 hc      1315 PP       0.001800
  11833 HB1        64.8800   68.5800   53.7600 hc      1315 PP       0.063200
  11834 HB2        65.8700   69.6600   52.7700 hc      1315 PP       0.063200
  11835 HB3        66.4600   68.0600   53.1500 hc      1315 PP       0.063200
  11836 C2         65.5400   70.3200   55.6200 c3      1316 PP      -0.006100
  11837 C1         65.5500   71.7500   54.8900 c3      1316 PP       0.076800
  11838 CB         64.3100   72.0100   53.9400 c3      1316 PP      -0.265900
  11839 H21        64.5300   69.8800   55.5700 hc      1316 PP       0.001900
  11840 H22        65.8500   70.4300   56.6600 hc      1316 PP       0.001900
  11841 H1         66.4400   71.8000   54.2500 hc      1316 PP       0.001800
  11842 HB1        64.2300   71.2400   53.1600 hc      1316 PP       0.063200
  11843 HB2        63.4000   72.0700   54.5400 hc      1316 PP       0.063200
  11844 HB3        64.4400   72.9400   53.3800 hc      1316 PP       0.063200
  11845 C2         65.6300   72.9100   55.9200 c3      1317 PP      -0.006100
  11846 C1         66.7700   72.8700   56.9500 c3      1317 PP       0.076800
  11847 CB         68.1500   72.4600   56.3300 c3      1317 PP      -0.265900
  11848 H21        65.7600   73.8300   55.3400 hc      1317 PP       0.001900
  11849 H22        64.6600   72.9300   56.4300 hc      1317 PP       0.001900
  11850 H1         66.5500   72.1400   57.7300 hc      1317 PP       0.001800
  11851 HB1        68.3700   73.1600   55.5200 hc      1317 PP       0.063200
  11852 HB2        68.9200   72.4700   57.1100 hc      1317 PP       0.063200
  11853 HB3        68.1100   71.3800   56.1400 hc      1317 PP       0.063200
  11854 C2         66.9600   74.2900   57.6100 c3      1318 PP      -0.006100
  11855 C1         65.7800   74.8500   58.4500 c3      1318 PP       0.076800
  11856 CB         65.7600   74.2200   59.8800 c3      1318 PP      -0.265900
  11857 H21        67.8700   74.3500   58.2300 hc      1318 PP       0.001900
  11858 H22        67.2000   75.0100   56.8100 hc      1318 PP       0.001900
  11859 H1         64.7800   74.6800   58.0200 hc      1318 PP       0.001800
  11860 HB1        65.6200   73.1300   59.8500 hc      1318 PP       0.063200
  11861 HB2        66.6800   74.3100   60.4800 hc      1318 PP       0.063200
  11862 HB3        64.9700   74.7200   60.4500 hc      1318 PP       0.063200
  11863 C2         65.8800   76.4200   58.6100 c3      1319 PP      -0.006100
  11864 C1         65.5500   77.2400   57.3200 c3      1319 PP       0.076800
  11865 CB         64.1000   77.5900   57.2200 c3      1319 PP      -0.265900
  11866 H21        65.2700   76.8500   59.4100 hc      1319 PP       0.001900
  11867 H22        66.9000   76.7000   58.9000 hc      1319 PP       0.001900
  11868 H1         65.7200   76.6400   56.4200 hc      1319 PP       0.001800
  11869 HB1        63.7500   78.2100   58.0600 hc      1319 PP       0.063200
  11870 HB2        63.9400   78.1600   56.3000 hc      1319 PP       0.063200
  11871 HB3        63.4200   76.7300   57.1500 hc      1319 PP       0.063200
  11872 C2         66.4100   78.5100   57.1500 c3      1320 PP      -0.006100
  11873 C1         67.8600   78.2900   56.6500 c3      1320 PP       0.076800
  11874 CB         67.7600   78.5000   55.1600 c3      1320 PP      -0.265900
  11875 H21        66.3700   79.0700   58.0800 hc      1320 PP       0.001900
  11876 H22        65.9800   79.2300   56.4500 hc      1320 PP       0.001900
  11877 H1         68.5100   79.1100   56.9900 hc      1320 PP       0.001800
  11878 HB1        68.7700   78.2600   54.8100 hc      1320 PP       0.063200
  11879 HB2        67.0800   77.8300   54.6100 hc      1320 PP       0.063200
  11880 HB3        67.5900   79.5300   54.8200 hc      1320 PP       0.063200
  11881 C2         69.1900   40.9400   59.3600 c3      1321 PP      -0.006100
  11882 C1         69.1800   41.8100   60.6200 c3      1321 PP       0.076800
  11883 CB         70.0800   41.1400   61.7200 c3      1321 PP      -0.265900
  11884 H21        70.2100   40.8500   58.9500 hc      1321 PP       0.001900
  11885 H22        68.3800   41.1600   58.6500 hc      1321 PP       0.001900
  11886 H1         68.2200   41.8800   61.1400 hc      1321 PP       0.001800
  11887 HB1        69.7600   40.1000   61.8400 hc      1321 PP       0.063200
  11888 HB2        71.1300   41.3200   61.4700 hc      1321 PP       0.063200
  11889 HB3        69.8500   41.6400   62.6700 hc      1321 PP       0.063200
  11890 C2         69.6700   43.2700   60.2900 c3      1322 PP      -0.006100
  11891 C1         68.8000   44.1500   59.3500 c3      1322 PP       0.076800
  11892 CB         67.3900   44.3300   59.8500 c3      1322 PP      -0.265900
  11893 H21        69.7600   43.8000   61.2400 hc      1322 PP       0.001900
  11894 H22        70.6700   43.2400   59.8300 hc      1322 PP       0.001900
  11895 H1         68.7200   43.5200   58.4600 hc      1322 PP       0.001800
  11896 HB1        66.7800   44.8800   59.1200 hc      1322 PP       0.063200
  11897 HB2        66.8600   43.4000   60.1000 hc      1322 PP       0.063200
  11898 HB3        67.4900   44.9300   60.7600 hc      1322 PP       0.063200
  11899 C2         69.4200   45.5400   58.9100 c3      1323 PP      -0.006100
  11900 C1         70.8900   45.6300   58.2800 c3      1323 PP       0.076800
  11901 CB         71.1800   44.7400   57.0300 c3      1323 PP      -0.265900
  11902 H21        68.6100   46.1000   58.4300 hc      1323 PP       0.001900
  11903 H22        69.5500   46.2000   59.7700 hc      1323 PP       0.001900
  11904 H1         71.4800   45.2100   59.1100 hc      1323 PP       0.001800
  11905 HB1        70.9600   43.6700   57.0300 hc      1323 PP       0.063200
  11906 HB2        70.5600   45.0700   56.1900 hc      1323 PP       0.063200
  11907 HB3        72.2000   44.8500   56.6400 hc      1323 PP       0.063200
  11908 C2         71.4500   47.0500   57.9900 c3      1324 PP      -0.006100
  11909 C1         70.8400   47.8300   56.7800 c3      1324 PP       0.076800
  11910 CB         70.1500   49.1900   57.2900 c3      1324 PP      -0.265900
  11911 H21        71.3400   47.6000   58.9200 hc      1324 PP       0.001900
  11912 H22        72.5200   46.9100   57.7600 hc      1324 PP       0.001900
  11913 H1         70.0300   47.1500   56.4800 hc      1324 PP       0.001800
  11914 HB1        69.3300   49.4200   56.6000 hc      1324 PP       0.063200
  11915 HB2        69.7400   49.1000   58.3000 hc      1324 PP       0.063200
  11916 HB3        70.8100   50.0600   57.1600 hc      1324 PP       0.063200
  11917 C2         71.8800   48.0500   55.6700 c3      1325 PP      -0.006100
  11918 C1         71.4300   48.9500   54.4900 c3      1325 PP       0.076800
  11919 CB         72.6500   49.2300   53.5800 c3      1325 PP      -0.265900
  11920 H21        72.7500   48.4500   56.2000 hc      1325 PP       0.001900
  11921 H22        72.3000   47.1100   55.3000 hc      1325 PP       0.001900
  11922 H1         70.8700   49.8500   54.7700 hc      1325 PP       0.001800
  11923 HB1        73.1100   48.3500   53.1100 hc      1325 PP       0.063200
  11924 HB2        72.4100   49.9200   52.7600 hc      1325 PP       0.063200
  11925 HB3        73.4300   49.7000   54.1900 hc      1325 PP       0.063200
  11926 C2         70.3900   48.2600   53.6000 c3      1326 PP      -0.006100
  11927 C1         69.6400   49.1100   52.5100 c3      1326 PP       0.076800
  11928 CB         68.9600   48.2100   51.5000 c3      1326 PP      -0.265900
  11929 H21        70.8300   47.4100   53.0700 hc      1326 PP       0.001900
  11930 H22        69.6400   47.7000   54.1800 hc      1326 PP       0.001900
  11931 H1         70.3100   49.7300   51.9000 hc      1326 PP       0.001800
  11932 HB1        68.3300   47.4500   51.9800 hc      1326 PP       0.063200
  11933 HB2        68.3200   48.6700   50.7300 hc      1326 PP       0.063200
  11934 HB3        69.7700   47.5900   51.0900 hc      1326 PP       0.063200
  11935 C2         68.6300   50.1400   53.1100 c3      1327 PP      -0.006100
  11936 C1         68.4100   51.4200   52.2900 c3      1327 PP       0.076800
  11937 CB         67.1500   52.2700   52.7800 c3      1327 PP      -0.265900
  11938 H21        67.7200   49.5700   53.2700 hc      1327 PP       0.001900
  11939 H22        68.9400   50.5000   54.1000 hc      1327 PP       0.001900
  11940 H1         68.1200   51.0600   51.2900 hc      1327 PP       0.001800
  11941 HB1        67.0200   52.2600   53.8700 hc      1327 PP       0.063200
  11942 HB2        67.1200   53.3200   52.4700 hc      1327 PP       0.063200
  11943 HB3        66.2500   51.7700   52.4100 hc      1327 PP       0.063200
  11944 C2         69.6400   52.2500   52.2900 c3      1328 PP      -0.006100
  11945 C1         70.1400   52.7400   50.9200 c3      1328 PP       0.076800
  11946 CB         69.0700   53.8200   50.3500 c3      1328 PP      -0.265900
  11947 H21        69.5500   53.1700   52.8900 hc      1328 PP       0.001900
  11948 H22        70.3800   51.6100   52.7800 hc      1328 PP       0.001900
  11949 H1         70.3100   51.8500   50.3100 hc      1328 PP       0.001800
  11950 HB1        69.3200   54.1200   49.3300 hc      1328 PP       0.063200
  11951 HB2        68.0100   53.5700   50.2400 hc      1328 PP       0.063200
  11952 HB3        69.1200   54.7000   51.0100 hc      1328 PP       0.063200
  11953 C2         71.5100   53.5200   50.9600 c3      1329 PP      -0.006100
  11954 C1         72.7300   52.7000   51.3700 c3      1329 PP       0.076800
  11955 CB         72.9600   51.4700   50.4300 c3      1329 PP      -0.265900
  11956 H21        71.6700   53.9300   49.9500 hc      1329 PP       0.001900
  11957 H22        71.4600   54.3900   51.6200 hc      1329 PP       0.001900
  11958 H1         72.6400   52.2100   52.3400 hc      1329 PP       0.001800
  11959 HB1        72.1900   50.7400   50.6800 hc      1329 PP       0.063200
  11960 HB2        72.8100   51.7000   49.3700 hc      1329 PP       0.063200
  11961 HB3        73.8300   50.8500   50.6800 hc      1329 PP       0.063200
  11962 C2         74.0300   53.5100   51.4700 c3      1330 PP      -0.006100
  11963 C1         73.9100   54.8500   52.3300 c3      1330 PP       0.076800
  11964 CB         73.3000   54.5900   53.7300 c3      1330 PP      -0.265900
  11965 H21        74.8100   52.9500   52.0100 hc      1330 PP       0.001900
  11966 H22        74.3400   53.6400   50.4300 hc      1330 PP       0.001900
  11967 H1         73.2700   55.5800   51.8100 hc      1330 PP       0.001800
  11968 HB1        72.2100   54.5700   53.6700 hc      1330 PP       0.063200
  11969 HB2        73.7400   53.7900   54.3400 hc      1330 PP       0.063200
  11970 HB3        73.5300   55.5100   54.2900 hc      1330 PP       0.063200
  11971 C2         75.3100   55.4400   52.4700 c3      1331 PP      -0.006100
  11972 C1         76.0100   56.0800   51.2800 c3      1331 PP       0.076800
  11973 CB         75.2600   57.2100   50.6300 c3      1331 PP      -0.265900
  11974 H21        75.2000   56.2100   53.2400 hc      1331 PP       0.001900
  11975 H22        75.9600   54.6200   52.7800 hc      1331 PP       0.001900
  11976 H1         76.0800   55.2600   50.5400 hc      1331 PP       0.001800
  11977 HB1        74.9000   57.8800   51.4200 hc      1331 PP       0.063200
  11978 HB2        75.9200   57.8800   50.0700 hc      1331 PP       0.063200
  11979 HB3        74.5100   56.7900   49.9600 hc      1331 PP       0.063200
  11980 C2         77.4200   56.5000   51.7300 c3      1332 PP      -0.006100
  11981 C1         78.4300   57.2100   50.8400 c3      1332 PP       0.076800
  11982 CB         78.5300   58.7900   51.1000 c3      1332 PP      -0.265900
  11983 H21        77.5200   57.1400   52.6200 hc      1332 PP       0.001900
  11984 H22        77.9200   55.5800   52.0400 hc      1332 PP       0.001900
  11985 H1         78.2000   56.9900   49.7900 hc      1332 PP       0.001800
  11986 HB1        79.0500   59.0300   52.0400 hc      1332 PP       0.063200
  11987 HB2        79.1300   59.2200   50.3000 hc      1332 PP       0.063200
  11988 HB3        77.5500   59.2600   50.9900 hc      1332 PP       0.063200
  11989 C2         79.9200   56.6200   50.9000 c3      1333 PP      -0.006100
  11990 C1         79.9600   55.0700   50.7400 c3      1333 PP       0.076800
  11991 CB         79.0700   54.4000   49.6100 c3      1333 PP      -0.265900
  11992 H21        80.4500   57.0400   50.0300 hc      1333 PP       0.001900
  11993 H22        80.4300   57.0200   51.7900 hc      1333 PP       0.001900
  11994 H1         79.6600   54.6500   51.7100 hc      1333 PP       0.001800
  11995 HB1        79.2000   54.9800   48.6900 hc      1333 PP       0.063200
  11996 HB2        79.4100   53.3900   49.3400 hc      1333 PP       0.063200
  11997 HB3        78.0000   54.2900   49.8000 hc      1333 PP       0.063200
  11998 C2          1.4600   54.6900   50.5400 c3      1334 PP      -0.006100
  11999 C1          1.8100   53.1500   50.4200 c3      1334 PP       0.076800
  12000 CB          3.2500   52.9800   50.0600 c3      1334 PP      -0.265900
  12001 H21         1.8200   55.2300   49.6500 hc      1334 PP       0.001900
  12002 H22         1.9600   55.1200   51.4200 hc      1334 PP       0.001900
  12003 H1          1.2200   52.8400   49.5400 hc      1334 PP       0.001800
  12004 HB1         3.4000   51.9400   49.7200 hc      1334 PP       0.063200
  12005 HB2         3.5700   53.6400   49.2500 hc      1334 PP       0.063200
  12006 HB3         3.9500   53.2000   50.8700 hc      1334 PP       0.063200
  12007 C2          1.3500   52.2500   51.6900 c3      1335 PP      -0.006100
  12008 C1          1.4500   50.6900   51.4900 c3      1335 PP       0.076800
  12009 CB          1.5300   49.9500   52.8700 c3      1335 PP      -0.265900
  12010 H21         2.0000   52.5300   52.5300 hc      1335 PP       0.001900
  12011 H22         0.3900   52.5600   52.1100 hc      1335 PP       0.001900
  12012 H1          2.3200   50.3500   50.9200 hc      1335 PP       0.001800
  12013 HB1         1.2000   48.9000   52.8500 hc      1335 PP       0.063200
  12014 HB2         2.5400   49.9700   53.3000 hc      1335 PP       0.063200
  12015 HB3         0.8800   50.4700   53.5900 hc      1335 PP       0.063200
  12016 C2         80.2500   50.2100   50.5100 c3      1336 PP      -0.006100
  12017 C1         78.8500   50.2500   51.1900 c3      1336 PP       0.076800
  12018 CB         77.7600   50.6500   50.1200 c3      1336 PP      -0.265900
  12019 H21        80.2500   50.8500   49.6200 hc      1336 PP       0.001900
  12020 H22        80.5200   49.2600   50.0200 hc      1336 PP       0.001900
  12021 H1         78.8300   51.0600   51.9300 hc      1336 PP       0.001800
  12022 HB1        77.6700   50.0000   49.2300 hc      1336 PP       0.063200
  12023 HB2        76.7300   50.7100   50.4900 hc      1336 PP       0.063200
  12024 HB3        77.9000   51.6800   49.7700 hc      1336 PP       0.063200
  12025 C2         78.4300   48.8300   51.8100 c3      1337 PP      -0.006100
  12026 C1         77.8000   49.0600   53.2000 c3      1337 PP       0.076800
  12027 CB         76.4500   49.9200   53.2200 c3      1337 PP      -0.265900
  12028 H21        77.7300   48.3700   51.1100 hc      1337 PP       0.001900
  12029 H22        79.3000   48.1600   51.7700 hc      1337 PP       0.001900
  12030 H1         78.4700   49.6500   53.8400 hc      1337 PP       0.001800
  12031 HB1        76.5700   50.9700   52.9500 hc      1337 PP       0.063200
  12032 HB2        75.8200   49.4900   52.4300 hc      1337 PP       0.063200
  12033 HB3        75.7700   49.8600   54.0700 hc      1337 PP       0.063200
  12034 C2         77.4900   47.7100   53.8600 c3      1338 PP      -0.006100
  12035 C1         77.0700   47.6800   55.3100 c3      1338 PP       0.076800
  12036 CB         76.0300   46.5400   55.5300 c3      1338 PP      -0.265900
  12037 H21        76.7200   47.2000   53.2600 hc      1338 PP       0.001900
  12038 H22        78.4200   47.1300   53.7800 hc      1338 PP       0.001900
  12039 H1         76.4600   48.5800   55.4800 hc      1338 PP       0.001800
  12040 HB1        75.2200   46.6400   54.8000 hc      1338 PP       0.063200
  12041 HB2        76.5800   45.5900   55.4500 hc      1338 PP       0.063200
  12042 HB3        75.5700   46.7000   56.5200 hc      1338 PP       0.063200
  12043 C2         78.2700   47.5000   56.3000 c3      1339 PP      -0.006100
  12044 C1         79.2300   48.7300   56.4700 c3      1339 PP       0.076800
  12045 CB         78.4900   50.0800   56.6900 c3      1339 PP      -0.265900
  12046 H21        77.8800   47.3100   57.3100 hc      1339 PP       0.001900
  12047 H22        78.9200   46.6500   56.0600 hc      1339 PP       0.001900
  12048 H1         79.7600   48.7900   55.5100 hc      1339 PP       0.001800
  12049 HB1        79.1300   50.9700   56.7300 hc      1339 PP       0.063200
  12050 HB2        77.8600   50.2700   55.8100 hc      1339 PP       0.063200
  12051 HB3        77.9000   49.8800   57.5900 hc      1339 PP       0.063200
  12052 C2          0.2800   48.4400   57.6400 c3      1340 PP      -0.006100
  12053 C1          1.7300   49.1600   57.3300 c3      1340 PP       0.076800
  12054 CB          1.7400   50.6800   56.9200 c3      1340 PP      -0.265900
  12055 H21        -0.0900   48.9100   58.5600 hc      1340 PP       0.001900
  12056 H22         0.4500   47.3600   57.6800 hc      1340 PP       0.001900
  12057 H1          2.1000   48.5700   56.4900 hc      1340 PP       0.001800
  12058 HB1         2.7500   51.1100   56.9400 hc      1340 PP       0.063200
  12059 HB2         1.3400   50.7700   55.9100 hc      1340 PP       0.063200
  12060 HB3         1.1600   51.2500   57.6500 hc      1340 PP       0.063200
  12061 C2          2.6700   48.7700   58.4700 c3      1341 PP      -0.006100
  12062 C1          4.1700   49.0500   58.4800 c3      1341 PP       0.076800
  12063 CB          4.7100   49.4500   59.9600 c3      1341 PP      -0.265900
  12064 H21         2.2700   49.2900   59.3500 hc      1341 PP       0.001900
  12065 H22         2.5000   47.6900   58.6100 hc      1341 PP       0.001900
  12066 H1          4.4200   49.9100   57.8500 hc      1341 PP       0.001800
  12067 HB1         4.4200   48.8300   60.8200 hc      1341 PP       0.063200
  12068 HB2         5.8000   49.5300   59.9900 hc      1341 PP       0.063200
  12069 HB3         4.3000   50.4600   60.1100 hc      1341 PP       0.063200
  12070 C2          5.0200   47.8000   58.0700 c3      1342 PP      -0.006100
  12071 C1          4.8200   47.3800   56.5800 c3      1342 PP       0.076800
  12072 CB          4.8400   48.4900   55.5400 c3      1342 PP      -0.265900
  12073 H21         6.0500   48.1600   58.1700 hc      1342 PP       0.001900
  12074 H22         4.8200   46.9700   58.7500 hc      1342 PP       0.001900
  12075 H1          3.7900   47.0100   56.4600 hc      1342 PP       0.001800
  12076 HB1         4.0600   49.2300   55.7800 hc      1342 PP       0.063200
  12077 HB2         5.8500   48.9200   55.4500 hc      1342 PP       0.063200
  12078 HB3         4.7300   47.9700   54.5800 hc      1342 PP       0.063200
  12079 C2          5.7800   46.2000   56.2200 c3      1343 PP      -0.006100
  12080 C1          5.6200   45.0100   57.2000 c3      1343 PP       0.076800
  12081 CB          5.8300   43.7900   56.4200 c3      1343 PP      -0.265900
  12082 H21         5.5400   45.9400   55.1800 hc      1343 PP       0.001900
  12083 H22         6.7800   46.6500   56.2500 hc      1343 PP       0.001900
  12084 H1          4.6200   44.9100   57.6200 hc      1343 PP       0.001800
  12085 HB1         6.0200   42.8700   56.9900 hc      1343 PP       0.063200
  12086 HB2         4.9800   43.5200   55.7900 hc      1343 PP       0.063200
  12087 HB3         6.7600   43.9700   55.8500 hc      1343 PP       0.063200
  12088 C2          6.7400   45.0700   58.3600 c3      1344 PP      -0.006100
  12089 C1          6.2700   44.7000   59.7600 c3      1344 PP       0.076800
  12090 CB          5.7600   43.2300   59.9000 c3      1344 PP      -0.265900
  12091 H21         7.6400   44.5900   57.9800 hc      1344 PP       0.001900
  12092 H22         7.0400   46.1200   58.4900 hc      1344 PP       0.001900
  12093 H1          5.3600   45.3000   59.8900 hc      1344 PP       0.001800
  12094 HB1         5.4800   43.0300   60.9500 hc      1344 PP       0.063200
  12095 HB2         4.8600   43.0300   59.3200 hc      1344 PP       0.063200
  12096 HB3         6.6100   42.5700   59.6600 hc      1344 PP       0.063200
  12097 C2          7.3600   45.1100   60.8700 c3      1345 PP      -0.006100
  12098 C1          7.2700   46.6500   61.2500 c3      1345 PP       0.076800
  12099 CB          6.4400   46.9400   62.5100 c3      1345 PP      -0.265900
  12100 H21         7.0700   44.6000   61.7900 hc      1345 PP       0.001900
  12101 H22         8.4000   44.8100   60.6600 hc      1345 PP       0.001900
  12102 H1          6.7600   47.1700   60.4300 hc      1345 PP       0.001800
  12103 HB1         5.3700   46.6900   62.4500 hc      1345 PP       0.063200
  12104 HB2         6.9300   46.4300   63.3500 hc      1345 PP       0.063200
  12105 HB3         6.4600   48.0200   62.7100 hc      1345 PP       0.063200
  12106 C2          8.6800   47.3800   61.3500 c3      1346 PP      -0.006100
  12107 C1          9.0500   48.3300   60.1800 c3      1346 PP       0.076800
  12108 CB         10.1600   49.3900   60.6300 c3      1346 PP      -0.265900
  12109 H21         8.5500   48.0600   62.2000 hc      1346 PP       0.001900
  12110 H22         9.4800   46.7000   61.6700 hc      1346 PP       0.001900
  12111 H1          8.1100   48.8000   59.8800 hc      1346 PP       0.001800
  12112 HB1        10.5000   50.0500   59.8200 hc      1346 PP       0.063200
  12113 HB2         9.8200   49.9300   61.5300 hc      1346 PP       0.063200
  12114 HB3        11.0200   48.7300   60.8200 hc      1346 PP       0.063200
  12115 C2          9.6000   47.5800   58.8900 c3      1347 PP      -0.006100
  12116 C1          9.9100   48.5000   57.6200 c3      1347 PP       0.076800
  12117 CB         10.5100   47.7200   56.4700 c3      1347 PP      -0.265900
  12118 H21        10.5300   47.0700   59.1700 hc      1347 PP       0.001900
  12119 H22         8.8300   46.8500   58.5800 hc      1347 PP       0.001900
  12120 H1         10.6800   49.2200   57.8900 hc      1347 PP       0.001800
  12121 HB1        11.4100   47.1900   56.8000 hc      1347 PP       0.063200
  12122 HB2         9.7800   46.9500   56.1900 hc      1347 PP       0.063200
  12123 HB3        10.7800   48.3600   55.6200 hc      1347 PP       0.063200
  12124 C2          8.7000   49.3000   57.0600 c3      1348 PP      -0.006100
  12125 C1          9.0300   50.7600   56.5300 c3      1348 PP       0.076800
  12126 CB          8.7400   50.7400   55.0400 c3      1348 PP      -0.265900
  12127 H21         8.2700   48.7400   56.2200 hc      1348 PP       0.001900
  12128 H22         7.8900   49.3200   57.8000 hc      1348 PP       0.001900
  12129 H1         10.0900   51.0300   56.6500 hc      1348 PP       0.001800
  12130 HB1         7.7300   50.4800   54.6900 hc      1348 PP       0.063200
  12131 HB2         8.8200   51.7300   54.5800 hc      1348 PP       0.063200
  12132 HB3         9.4500   50.1300   54.4700 hc      1348 PP       0.063200
  12133 C2          8.1900   51.8900   57.1800 c3      1349 PP      -0.006100
  12134 C1          8.4500   52.2200   58.6300 c3      1349 PP       0.076800
  12135 CB          9.8800   52.7200   58.9200 c3      1349 PP      -0.265900
  12136 H21         8.2500   52.8300   56.6000 hc      1349 PP       0.001900
  12137 H22         7.1900   51.4700   57.0900 hc      1349 PP       0.001900
  12138 H1          8.2700   51.3000   59.2000 hc      1349 PP       0.001800
  12139 HB1         9.9600   52.7800   60.0100 hc      1349 PP       0.063200
  12140 HB2        10.6800   52.0700   58.5700 hc      1349 PP       0.063200
  12141 HB3        10.1600   53.6600   58.4200 hc      1349 PP       0.063200
  12142 C2          7.3100   53.2500   59.0600 c3      1350 PP      -0.006100
  12143 C1          7.6500   54.6400   58.7000 c3      1350 PP       0.076800
  12144 CB          6.8400   55.7900   59.3900 c3      1350 PP      -0.265900
  12145 H21         7.0900   53.2100   60.1300 hc      1350 PP       0.001900
  12146 H22         6.3600   52.9300   58.6100 hc      1350 PP       0.001900
  12147 H1          7.4700   54.7600   57.6200 hc      1350 PP       0.001800
  12148 HB1         6.6600   55.6300   60.4600 hc      1350 PP       0.063200
  12149 HB2         7.2200   56.8200   59.3400 hc      1350 PP       0.063200
  12150 HB3         5.8700   55.9900   58.9200 hc      1350 PP       0.063200
  12151 C2         16.2500   27.9400   60.7000 c3      1351 PP      -0.006100
  12152 C1         15.3100   28.9300   61.4100 c3      1351 PP       0.076800
  12153 CB         15.8600   30.3700   61.3700 c3      1351 PP      -0.265900
  12154 H21        15.8700   26.9800   61.0600 hc      1351 PP       0.001900
  12155 H22        17.2100   28.0700   61.2200 hc      1351 PP       0.001900
  12156 H1         15.3500   28.5400   62.4300 hc      1351 PP       0.001800
  12157 HB1        15.1200   31.1600   61.2300 hc      1351 PP       0.063200
  12158 HB2        16.3700   30.5600   62.3200 hc      1351 PP       0.063200
  12159 HB3        16.4900   30.5600   60.4900 hc      1351 PP       0.063200
  12160 C2         13.9100   28.9200   60.9200 c3      1352 PP      -0.006100
  12161 C1         13.1300   27.6200   61.3600 c3      1352 PP       0.076800
  12162 CB         12.6900   27.6300   62.8400 c3      1352 PP      -0.265900
  12163 H21        13.3300   29.7600   61.3200 hc      1352 PP       0.001900
  12164 H22        13.9000   29.0500   59.8300 hc      1352 PP       0.001900
  12165 H1         13.8000   26.7500   61.2700 hc      1352 PP       0.001800
  12166 HB1        12.3000   28.6300   63.0800 hc      1352 PP       0.063200
  12167 HB2        12.0100   26.8000   63.0600 hc      1352 PP       0.063200
  12168 HB3        13.5200   27.5800   63.5500 hc      1352 PP       0.063200
  12169 C2         11.8400   27.3600   60.4800 c3      1353 PP      -0.006100
  12170 C1         12.1100   27.0000   59.0100 c3      1353 PP       0.076800
  12171 CB         13.1600   25.8400   58.8500 c3      1353 PP      -0.265900
  12172 H21        11.3700   26.4900   60.9600 hc      1353 PP       0.001900
  12173 H22        11.1900   28.2400   60.5200 hc      1353 PP       0.001900
  12174 H1         12.6600   27.8100   58.5200 hc      1353 PP       0.001800
  12175 HB1        14.1700   26.2100   59.1100 hc      1353 PP       0.063200
  12176 HB2        12.8800   25.0200   59.5200 hc      1353 PP       0.063200
  12177 HB3        13.1400   25.3800   57.8600 hc      1353 PP       0.063200
  12178 C2         10.8000   26.7700   58.2300 c3      1354 PP      -0.006100
  12179 C1          9.7800   27.9600   58.2200 c3      1354 PP       0.076800
  12180 CB         10.4300   29.3100   57.9200 c3      1354 PP      -0.265900
  12181 H21        11.0800   26.4900   57.2000 hc      1354 PP       0.001900
  12182 H22        10.3900   25.9300   58.8000 hc      1354 PP       0.001900
  12183 H1          9.2600   28.0400   59.1800 hc      1354 PP       0.001800
  12184 HB1        10.8500   29.3700   56.9100 hc      1354 PP       0.063200
  12185 HB2         9.7000   30.1200   58.0300 hc      1354 PP       0.063200
  12186 HB3        11.2900   29.5500   58.5600 hc      1354 PP       0.063200
  12187 C2          8.6800   27.6400   57.1400 c3      1355 PP      -0.006100
  12188 C1          7.3500   28.4600   57.3300 c3      1355 PP       0.076800
  12189 CB          6.5400   28.4400   56.0500 c3      1355 PP      -0.265900
  12190 H21         9.1600   27.8600   56.1800 hc      1355 PP       0.001900
  12191 H22         8.3200   26.6100   57.0600 hc      1355 PP       0.001900
  12192 H1          7.6400   29.4700   57.6400 hc      1355 PP       0.001800
  12193 HB1         7.0600   28.9700   55.2400 hc      1355 PP       0.063200
  12194 HB2         6.2500   27.4300   55.7100 hc      1355 PP       0.063200
  12195 HB3         5.6200   29.0400   56.1500 hc      1355 PP       0.063200
  12196 C2          6.5200   27.8900   58.5500 c3      1356 PP      -0.006100
  12197 C1          5.1400   28.5600   58.8800 c3      1356 PP       0.076800
  12198 CB          4.6600   27.8500   60.1000 c3      1356 PP      -0.265900
  12199 H21         6.3400   26.8400   58.3000 hc      1356 PP       0.001900
  12200 H22         7.1200   27.9900   59.4600 hc      1356 PP       0.001900
  12201 H1          4.5000   28.3500   58.0200 hc      1356 PP       0.001800
  12202 HB1         4.6500   26.7700   59.9100 hc      1356 PP       0.063200
  12203 HB2         5.2700   28.1600   60.9500 hc      1356 PP       0.063200
  12204 HB3         3.6400   28.1700   60.3500 hc      1356 PP       0.063200
  12205 C2          5.2800   30.1300   59.0200 c3      1357 PP      -0.006100
  12206 C1          3.9200   30.8600   59.2300 c3      1357 PP       0.076800
  12207 CB          4.2200   32.2300   59.8500 c3      1357 PP      -0.265900
  12208 H21         6.0200   30.3100   59.8000 hc      1357 PP       0.001900
  12209 H22         5.7100   30.4100   58.0500 hc      1357 PP       0.001900
  12210 H1          3.4700   30.2500   60.0300 hc      1357 PP       0.001800
  12211 HB1         5.0600   32.6600   59.2800 hc      1357 PP       0.063200
  12212 HB2         3.4200   32.9800   59.8200 hc      1357 PP       0.063200
  12213 HB3         4.5600   32.1000   60.8800 hc      1357 PP       0.063200
  12214 C2          3.0100   30.9900   58.0100 c3      1358 PP      -0.006100
  12215 C1          1.5700   30.5500   58.2100 c3      1358 PP       0.076800
  12216 CB          1.5000   29.0500   58.5400 c3      1358 PP      -0.265900
  12217 H21         2.9500   32.0200   57.6300 hc      1358 PP       0.001900
  12218 H22         3.4400   30.3900   57.2000 hc      1358 PP       0.001900
  12219 H1          1.1300   30.6100   57.2000 hc      1358 PP       0.001800
  12220 HB1         1.8600   28.9100   59.5700 hc      1358 PP       0.063200
  12221 HB2         0.4700   28.6900   58.4400 hc      1358 PP       0.063200
  12222 HB3         2.0900   28.4800   57.8100 hc      1358 PP       0.063200
  12223 C2         80.8000   31.5400   59.0700 c3      1359 PP      -0.006100
  12224 C1         79.3800   31.1200   59.4900 c3      1359 PP       0.076800
  12225 CB         78.7200   32.1800   60.3600 c3      1359 PP      -0.265900
  12226 H21        81.2500   31.7900   60.0400 hc      1359 PP       0.001900
  12227 H22        80.7500   32.4700   58.5000 hc      1359 PP       0.001900
  12228 H1         79.4700   30.2000   60.0800 hc      1359 PP       0.001800
  12229 HB1        77.8200   31.8200   60.8600 hc      1359 PP       0.063200
  12230 HB2        79.3500   32.4900   61.2000 hc      1359 PP       0.063200
  12231 HB3        78.5700   33.1000   59.7800 hc      1359 PP       0.063200
  12232 C2         78.5100   30.8600   58.2200 c3      1360 PP      -0.006100
  12233 C1         77.0800   30.2500   58.2700 c3      1360 PP       0.076800
  12234 CB         77.0900   28.9800   59.1800 c3      1360 PP      -0.265900
  12235 H21        78.4400   31.7800   57.6300 hc      1360 PP       0.001900
  12236 H22        79.1800   30.2300   57.6300 hc      1360 PP       0.001900
  12237 H1         76.8300   29.8200   57.2900 hc      1360 PP       0.001800
  12238 HB1        77.1400   29.2100   60.2500 hc      1360 PP       0.063200
  12239 HB2        76.1600   28.4000   59.0800 hc      1360 PP       0.063200
  12240 HB3        77.9200   28.3000   58.9500 hc      1360 PP       0.063200
  12241 C2         76.0200   31.2700   58.7200 c3      1361 PP      -0.006100
  12242 C1         74.5400   30.9500   58.3200 c3      1361 PP       0.076800
  12243 CB         73.5800   31.8800   59.0800 c3      1361 PP      -0.265900
  12244 H21        76.0800   31.3200   59.8100 hc      1361 PP       0.001900
  12245 H22        76.3100   32.2500   58.3100 hc      1361 PP       0.001900
  12246 H1         74.4400   29.8800   58.5400 hc      1361 PP       0.001800
  12247 HB1        72.5200   31.8100   58.8000 hc      1361 PP       0.063200
  12248 HB2        73.7200   31.6500   60.1400 hc      1361 PP       0.063200
  12249 HB3        73.8700   32.9300   58.9400 hc      1361 PP       0.063200
  12250 C2         74.3000   31.0700   56.7400 c3      1362 PP      -0.006100
  12251 C1         72.9600   30.5700   56.1000 c3      1362 PP       0.076800
  12252 CB         72.8400   30.9700   54.6100 c3      1362 PP      -0.265900
  12253 H21        74.6000   32.1100   56.5500 hc      1362 PP       0.001900
  12254 H22        75.1400   30.4900   56.3200 hc      1362 PP       0.001900
  12255 H1         72.1800   31.0900   56.6700 hc      1362 PP       0.001800
  12256 HB1        73.5500   30.4300   53.9600 hc      1362 PP       0.063200
  12257 HB2        71.8300   31.0300   54.1800 hc      1362 PP       0.063200
  12258 HB3        73.1400   32.0200   54.6000 hc      1362 PP       0.063200
  12259 C2         72.8900   28.9800   56.2500 c3      1363 PP      -0.006100
  12260 C1         71.5500   28.3900   55.6900 c3      1363 PP       0.076800
  12261 CB         71.7300   26.8700   55.3100 c3      1363 PP      -0.265900
  12262 H21        73.7400   28.6600   55.6500 hc      1363 PP       0.001900
  12263 H22        73.0800   28.7600   57.3100 hc      1363 PP       0.001900
  12264 H1         71.3600   28.8800   54.7300 hc      1363 PP       0.001800
  12265 HB1        72.0300   26.3000   56.2000 hc      1363 PP       0.063200
  12266 HB2        70.8100   26.3600   55.0000 hc      1363 PP       0.063200
  12267 HB3        72.5100   26.6600   54.5600 hc      1363 PP       0.063200
  12268 C2         70.3700   28.5800   56.7400 c3      1364 PP      -0.006100
  12269 C1         68.9700   28.6200   56.1000 c3      1364 PP       0.076800
  12270 CB         67.9900   28.4300   57.3000 c3      1364 PP      -0.265900
  12271 H21        70.3100   27.6200   57.2800 hc      1364 PP       0.001900
  12272 H22        70.6200   29.4200   57.4000 hc      1364 PP       0.001900
  12273 H1         68.8500   27.7300   55.4700 hc      1364 PP       0.001800
  12274 HB1        68.1100   27.5300   57.9100 hc      1364 PP       0.063200
  12275 HB2        68.1200   29.3500   57.8800 hc      1364 PP       0.063200
  12276 HB3        66.9900   28.4600   56.8500 hc      1364 PP       0.063200
  12277 C2         68.8100   30.0400   55.3700 c3      1365 PP      -0.006100
  12278 C1         67.5000   30.0300   54.5200 c3      1365 PP       0.076800
  12279 CB         66.3300   30.6400   55.3100 c3      1365 PP      -0.265900
  12280 H21        68.8000   30.8100   56.1400 hc      1365 PP       0.001900
  12281 H22        69.6100   30.2700   54.6600 hc      1365 PP       0.001900
  12282 H1         67.2100   28.9900   54.3300 hc      1365 PP       0.001800
  12283 HB1        66.4100   31.7300   55.2900 hc      1365 PP       0.063200
  12284 HB2        65.3500   30.4700   54.8500 hc      1365 PP       0.063200
  12285 HB3        66.3400   30.3700   56.3700 hc      1365 PP       0.063200
  12286 C2         67.7100   30.9200   53.2700 c3      1366 PP      -0.006100
  12287 C1         68.0400   30.0600   52.0100 c3      1366 PP       0.076800
  12288 CB         67.9400   30.8600   50.6500 c3      1366 PP      -0.265900
  12289 H21        66.7100   31.3200   53.0400 hc      1366 PP       0.001900
  12290 H22        68.3600   31.7900   53.4100 hc      1366 PP       0.001900
  12291 H1         67.3100   29.2600   51.8600 hc      1366 PP       0.001800
  12292 HB1        67.1500   31.6300   50.7100 hc      1366 PP       0.063200
  12293 HB2        68.8500   31.4400   50.4400 hc      1366 PP       0.063200
  12294 HB3        67.7000   30.2500   49.7800 hc      1366 PP       0.063200
  12295 C2         69.4100   29.3700   52.2100 c3      1367 PP      -0.006100
  12296 C1         69.9900   28.7100   50.8600 c3      1367 PP       0.076800
  12297 CB         71.4700   28.1800   51.0900 c3      1367 PP      -0.265900
  12298 H21        70.1100   30.0200   52.7400 hc      1367 PP       0.001900
  12299 H22        69.2100   28.5600   52.9100 hc      1367 PP       0.001900
  12300 H1         70.0100   29.4200   50.0200 hc      1367 PP       0.001800
  12301 HB1        71.7200   27.5400   50.2400 hc      1367 PP       0.063200
  12302 HB2        72.2300   28.9700   51.1500 hc      1367 PP       0.063200
  12303 HB3        71.5500   27.7400   52.0900 hc      1367 PP       0.063200
  12304 C2         69.1400   27.5400   50.2800 c3      1368 PP      -0.006100
  12305 C1         69.0400   26.2000   51.1900 c3      1368 PP       0.076800
  12306 CB         67.5500   25.7900   51.3700 c3      1368 PP      -0.265900
  12307 H21        68.1700   27.9100   49.9300 hc      1368 PP       0.001900
  12308 H22        69.6800   27.1800   49.3900 hc      1368 PP       0.001900
  12309 H1         69.4700   26.4500   52.1700 hc      1368 PP       0.001800
  12310 HB1        67.1200   26.7600   51.6500 hc      1368 PP       0.063200
  12311 HB2        67.0100   25.5400   50.4500 hc      1368 PP       0.063200
  12312 HB3        67.3700   25.1600   52.2500 hc      1368 PP       0.063200
  12313 C2         69.6900   25.0500   50.6000 c3      1369 PP      -0.006100
  12314 C1         69.5300   23.5400   51.1400 c3      1369 PP       0.076800
  12315 CB         70.2400   22.5800   50.0800 c3      1369 PP      -0.265900
  12316 H21        69.5500   24.9900   49.5100 hc      1369 PP       0.001900
  12317 H22        70.7400   25.3000   50.7900 hc      1369 PP       0.001900
  12318 H1         68.4600   23.2700   51.1600 hc      1369 PP       0.001800
  12319 HB1        71.3300   22.6400   50.1100 hc      1369 PP       0.063200
  12320 HB2        69.9400   21.5500   50.2800 hc      1369 PP       0.063200
  12321 HB3        69.7900   22.8100   49.1100 hc      1369 PP       0.063200
  12322 C2         70.1600   23.4100   52.6000 c3      1370 PP      -0.006100
  12323 C1         69.7500   22.1200   53.3300 c3      1370 PP       0.076800
  12324 CB         70.7400   22.0100   54.5900 c3      1370 PP      -0.265900
  12325 H21        71.2200   23.6800   52.5700 hc      1370 PP       0.001900
  12326 H22        69.6000   24.2100   53.1100 hc      1370 PP       0.001900
  12327 H1         70.1200   21.3600   52.6200 hc      1370 PP       0.001800
  12328 HB1        70.3900   21.1900   55.2200 hc      1370 PP       0.063200
  12329 HB2        71.7700   21.7500   54.3200 hc      1370 PP       0.063200
  12330 HB3        70.7000   22.9300   55.1800 hc      1370 PP       0.063200
  12331 C2         68.2700   21.8400   53.6600 c3      1371 PP      -0.006100
  12332 C1         67.8800   20.4000   53.4400 c3      1371 PP       0.076800
  12333 CB         66.6400   20.0400   54.2900 c3      1371 PP      -0.265900
  12334 H21        68.0300   22.1200   54.6900 hc      1371 PP       0.001900
  12335 H22        67.6900   22.4000   52.9200 hc      1371 PP       0.001900
  12336 H1         68.6500   19.7900   53.9200 hc      1371 PP       0.001800
  12337 HB1        65.7900   20.4500   53.7300 hc      1371 PP       0.063200
  12338 HB2        66.5500   18.9500   54.3800 hc      1371 PP       0.063200
  12339 HB3        66.5900   20.5200   55.2800 hc      1371 PP       0.063200
  12340 C2         67.7100   20.0300   51.9300 c3      1372 PP      -0.006100
  12341 C1         67.9700   18.5300   51.4500 c3      1372 PP       0.076800
  12342 CB         67.2700   18.2200   50.0600 c3      1372 PP      -0.265900
  12343 H21        66.7400   20.3900   51.5700 hc      1372 PP       0.001900
  12344 H22        68.4600   20.5600   51.3500 hc      1372 PP       0.001900
  12345 H1         67.4200   17.9000   52.1600 hc      1372 PP       0.001800
  12346 HB1        67.9600   17.6100   49.4600 hc      1372 PP       0.063200
  12347 HB2        66.2700   17.7700   50.1800 hc      1372 PP       0.063200
  12348 HB3        67.2500   19.1400   49.4500 hc      1372 PP       0.063200
  12349 C2         69.4800   18.0500   51.4700 c3      1373 PP      -0.006100
  12350 C1         69.9000   16.8200   52.3700 c3      1373 PP       0.076800
  12351 CB         70.0200   17.2200   53.8700 c3      1373 PP      -0.265900
  12352 H21        69.8700   17.8800   50.4500 hc      1373 PP       0.001900
  12353 H22        70.1000   18.8800   51.8200 hc      1373 PP       0.001900
  12354 H1         70.8900   16.5200   52.0200 hc      1373 PP       0.001800
  12355 HB1        70.6800   18.0800   54.0400 hc      1373 PP       0.063200
  12356 HB2        69.0100   17.3700   54.2800 hc      1373 PP       0.063200
  12357 HB3        70.4200   16.3800   54.4600 hc      1373 PP       0.063200
  12358 C2         69.0300   15.4300   52.1600 c3      1374 PP      -0.006100
  12359 C1         68.9700   14.8900   50.7000 c3      1374 PP       0.076800
  12360 CB         70.3500   14.4400   50.1400 c3      1374 PP      -0.265900
  12361 H21        69.3400   14.6500   52.8700 hc      1374 PP       0.001900
  12362 H22        68.0200   15.5800   52.5500 hc      1374 PP       0.001900
  12363 H1         68.6400   15.6500   49.9800 hc      1374 PP       0.001800
  12364 HB1        70.1400   14.1000   49.1200 hc      1374 PP       0.063200
  12365 HB2        71.0500   15.2800   50.0700 hc      1374 PP       0.063200
  12366 HB3        70.8300   13.6500   50.7300 hc      1374 PP       0.063200
  12367 C2         68.1000   13.5400   50.6200 c3      1375 PP      -0.006100
  12368 C1         66.6200   13.5900   50.9900 c3      1375 PP       0.076800
  12369 CB         65.8000   14.7800   50.2800 c3      1375 PP      -0.265900
  12370 H21        68.2000   13.0700   49.6300 hc      1375 PP       0.001900
  12371 H22        68.5200   12.8100   51.3100 hc      1375 PP       0.001900
  12372 H1         66.6000   13.7600   52.0800 hc      1375 PP       0.001800
  12373 HB1        64.7400   14.8400   50.5400 hc      1375 PP       0.063200
  12374 HB2        66.2600   15.7400   50.5500 hc      1375 PP       0.063200
  12375 HB3        65.8600   14.5900   49.2000 hc      1375 PP       0.063200
  12376 C2         65.8900   12.2400   50.6700 c3      1376 PP      -0.006100
  12377 C1         64.9400   11.7700   51.8100 c3      1376 PP       0.076800
  12378 CB         63.9300   12.9200   52.1400 c3      1376 PP      -0.265900
  12379 H21        65.3600   12.2100   49.7100 hc      1376 PP       0.001900
  12380 H22        66.5200   11.3600   50.4900 hc      1376 PP       0.001900
  12381 H1         65.5100   11.5400   52.7100 hc      1376 PP       0.001800
  12382 HB1        63.1200   12.6000   52.8000 hc      1376 PP       0.063200
  12383 HB2        64.4300   13.6600   52.7900 hc      1376 PP       0.063200
  12384 HB3        63.4400   13.3900   51.2800 hc      1376 PP       0.063200
  12385 C2         64.1400   10.3800   51.4200 c3      1377 PP      -0.006100
  12386 C1         64.9700    9.1400   51.7200 c3      1377 PP       0.076800
  12387 CB         64.9500    8.8500   53.2600 c3      1377 PP      -0.265900
  12388 H21        63.1800   10.2700   51.9400 hc      1377 PP       0.001900
  12389 H22        63.9000   10.2700   50.3600 hc      1377 PP       0.001900
  12390 H1         65.9900    9.3300   51.3800 hc      1377 PP       0.001800
  12391 HB1        63.9600    8.5800   53.6600 hc      1377 PP       0.063200
  12392 HB2        65.7300    8.1600   53.5900 hc      1377 PP       0.063200
  12393 HB3        65.2600    9.7600   53.7800 hc      1377 PP       0.063200
  12394 C2         64.3800    7.8700   50.9700 c3      1378 PP      -0.006100
  12395 C1         65.3900    6.6600   50.8700 c3      1378 PP       0.076800
  12396 CB         64.6800    5.4900   50.1100 c3      1378 PP      -0.265900
  12397 H21        63.5000    7.5100   51.5200 hc      1378 PP       0.001900
  12398 H22        64.1000    8.1000   49.9400 hc      1378 PP       0.001900
  12399 H1         65.6700    6.2700   51.8500 hc      1378 PP       0.001800
  12400 HB1        64.5100    5.7600   49.0600 hc      1378 PP       0.063200
  12401 HB2        65.2800    4.5800   50.2700 hc      1378 PP       0.063200
  12402 HB3        63.7000    5.3500   50.5800 hc      1378 PP       0.063200
  12403 C2         66.7500    6.9800   50.1200 c3      1379 PP      -0.006100
  12404 C1         67.9800    7.2300   51.0600 c3      1379 PP       0.076800
  12405 CB         68.3400    5.9200   51.8500 c3      1379 PP      -0.265900
  12406 H21        66.9500    6.0600   49.5600 hc      1379 PP       0.001900
  12407 H22        66.6000    7.7900   49.4000 hc      1379 PP       0.001900
  12408 H1         67.7200    8.0000   51.8000 hc      1379 PP       0.001800
  12409 HB1        69.4400    5.9500   51.8700 hc      1379 PP       0.063200
  12410 HB2        67.8600    6.0600   52.8200 hc      1379 PP       0.063200
  12411 HB3        67.8900    5.0300   51.4000 hc      1379 PP       0.063200
  12412 C2         69.2800    7.8400   50.4000 c3      1380 PP      -0.006100
  12413 C1         68.9900    9.1100   49.6100 c3      1380 PP       0.076800
  12414 CB         70.1100   10.2200   49.7500 c3      1380 PP      -0.265900
  12415 H21        69.8800    7.0900   49.8900 hc      1380 PP       0.001900
  12416 H22        69.9400    8.1200   51.2300 hc      1380 PP       0.001900
  12417 H1         68.0500    9.5700   49.9400 hc      1380 PP       0.001800
  12418 HB1        71.0600    9.7800   49.4000 hc      1380 PP       0.063200
  12419 HB2        69.8700   11.0500   49.0700 hc      1380 PP       0.063200
  12420 HB3        70.3100   10.5200   50.7800 hc      1380 PP       0.063200
  12421 C2         31.8700   77.0600   56.9600 c3      1381 PP      -0.006100
  12422 C1         33.3500   77.0000   57.2200 c3      1381 PP       0.076800
  12423 CB         34.0300   76.4100   55.9800 c3      1381 PP      -0.265900
  12424 H21        31.6000   77.7800   56.1700 hc      1381 PP       0.001900
  12425 H22        31.2500   77.1900   57.8500 hc      1381 PP       0.001900
  12426 H1         33.6800   76.3600   58.0400 hc      1381 PP       0.001800
  12427 HB1        33.7200   76.8300   55.0100 hc      1381 PP       0.063200
  12428 HB2        35.1200   76.4300   56.0500 hc      1381 PP       0.063200
  12429 HB3        33.6300   75.3900   56.0000 hc      1381 PP       0.063200
  12430 C2         33.8500   78.4500   57.5000 c3      1382 PP      -0.006100
  12431 C1         33.5500   79.1100   58.8900 c3      1382 PP       0.076800
  12432 CB         34.2400   78.3200   60.0900 c3      1382 PP      -0.265900
  12433 H21        34.9400   78.4600   57.4100 hc      1382 PP       0.001900
  12434 H22        33.4400   79.1600   56.7700 hc      1382 PP       0.001900
  12435 H1         32.4700   79.1700   59.0600 hc      1382 PP       0.001800
  12436 HB1        33.8100   77.3300   60.3000 hc      1382 PP       0.063200
  12437 HB2        35.2900   78.0700   59.9000 hc      1382 PP       0.063200
  12438 HB3        34.2500   78.7800   61.0900 hc      1382 PP       0.063200
  12439 C2         34.0400    0.6600   58.8100 c3      1383 PP      -0.006100
  12440 C1         33.3900    1.5100   59.9300 c3      1383 PP       0.076800
  12441 CB         34.2900    2.7400   60.1800 c3      1383 PP      -0.265900
  12442 H21        35.1200    0.6100   59.0200 hc      1383 PP       0.001900
  12443 H22        33.7700    1.0600   57.8300 hc      1383 PP       0.001900
  12444 H1         33.5500    0.9500   60.8500 hc      1383 PP       0.001800
  12445 HB1        35.3700    2.5600   60.0800 hc      1383 PP       0.063200
  12446 HB2        33.9700    3.6100   59.6000 hc      1383 PP       0.063200
  12447 HB3        34.1400    3.1300   61.1900 hc      1383 PP       0.063200
  12448 C2         31.8600    1.8400   59.7400 c3      1384 PP      -0.006100
  12449 C1         31.0100    1.4900   61.0000 c3      1384 PP       0.076800
  12450 CB         29.6000    2.2000   60.8500 c3      1384 PP      -0.265900
  12451 H21        31.7600    2.9200   59.5400 hc      1384 PP       0.001900
  12452 H22        31.4000    1.2300   58.9500 hc      1384 PP       0.001900
  12453 H1         31.4900    2.1000   61.7800 hc      1384 PP       0.001800
  12454 HB1        29.0500    2.1500   61.8000 hc      1384 PP       0.063200
  12455 HB2        29.6400    3.2500   60.5300 hc      1384 PP       0.063200
  12456 HB3        28.9700    1.7200   60.0900 hc      1384 PP       0.063200
  12457 C2         31.0600   79.9500   61.3200 c3      1385 PP      -0.006100
  12458 C1         30.2400   79.4400   62.5100 c3      1385 PP       0.076800
  12459 CB         30.3500   77.8700   62.5300 c3      1385 PP      -0.265900
  12460 H21        30.6100   79.5500   60.4100 hc      1385 PP       0.001900
  12461 H22        32.0800   79.5500   61.3100 hc      1385 PP       0.001900
  12462 H1         29.2000   79.7500   62.3800 hc      1385 PP       0.001800
  12463 HB1        31.2800   77.5400   63.0200 hc      1385 PP       0.063200
  12464 HB2        29.4100   77.4900   62.9600 hc      1385 PP       0.063200
  12465 HB3        30.3600   77.4900   61.5000 hc      1385 PP       0.063200
  12466 C2         30.8100   79.8900   63.8800 c3      1386 PP      -0.006100
  12467 C1         30.0900   79.4100   65.1400 c3      1386 PP       0.076800
  12468 CB         31.0500   79.3900   66.3600 c3      1386 PP      -0.265900
  12469 H21        31.8600   79.5600   63.8900 hc      1386 PP       0.001900
  12470 H22        30.8500   80.9800   63.9700 hc      1386 PP       0.001900
  12471 H1         29.6900   78.4000   65.0100 hc      1386 PP       0.001800
  12472 HB1        30.5700   79.0600   67.2900 hc      1386 PP       0.063200
  12473 HB2        31.8000   78.5900   66.2600 hc      1386 PP       0.063200
  12474 HB3        31.5500   80.3600   66.4600 hc      1386 PP       0.063200
  12475 C2         28.8200    0.2700   65.4200 c3      1387 PP      -0.006100
  12476 C1         27.7100   -0.5600   66.0800 c3      1387 PP       0.076800
  12477 CB         26.6000    0.4000   66.7100 c3      1387 PP      -0.265900
  12478 H21        29.0700    1.0800   66.1300 hc      1387 PP       0.001900
  12479 H22        28.4500    0.7000   64.4900 hc      1387 PP       0.001900
  12480 H1         28.2000   -1.1900   66.8300 hc      1387 PP       0.001800
  12481 HB1        26.9300    1.0600   67.5300 hc      1387 PP       0.063200
  12482 HB2        26.2200    1.0800   65.9400 hc      1387 PP       0.063200
  12483 HB3        25.7100   -0.1000   67.1100 hc      1387 PP       0.063200
  12484 C2         26.8300   78.6100   65.0600 c3      1388 PP      -0.006100
  12485 C1         25.7600   77.6600   65.6800 c3      1388 PP       0.076800
  12486 CB         24.3900   78.1000   65.2700 c3      1388 PP      -0.265900
  12487 H21        26.4300   79.3400   64.3500 hc      1388 PP       0.001900
  12488 H22        27.4800   77.9900   64.4300 hc      1388 PP       0.001900
  12489 H1         25.7300   77.7200   66.7800 hc      1388 PP       0.001800
  12490 HB1        24.3100   79.1600   65.5500 hc      1388 PP       0.063200
  12491 HB2        24.1600   77.9800   64.2000 hc      1388 PP       0.063200
  12492 HB3        23.6200   77.5800   65.8500 hc      1388 PP       0.063200
  12493 C2         26.0100   76.1500   65.3000 c3      1389 PP      -0.006100
  12494 C1         27.4500   75.6000   65.5700 c3      1389 PP       0.076800
  12495 CB         27.8400   75.6500   67.1100 c3      1389 PP      -0.265900
  12496 H21        25.3000   75.5000   65.8200 hc      1389 PP       0.001900
  12497 H22        25.8700   76.1300   64.2100 hc      1389 PP       0.001900
  12498 H1         28.2200   76.1700   65.0400 hc      1389 PP       0.001800
  12499 HB1        27.1700   74.9800   67.6700 hc      1389 PP       0.063200
  12500 HB2        28.8900   75.3800   67.2900 hc      1389 PP       0.063200
  12501 HB3        27.7200   76.6800   67.4700 hc      1389 PP       0.063200
  12502 C2         27.6200   74.2200   64.9500 c3      1390 PP      -0.006100
  12503 C1         29.0500   73.5700   64.9400 c3      1390 PP       0.076800
  12504 CB         28.9900   72.2700   64.1400 c3      1390 PP      -0.265900
  12505 H21        26.9400   73.5000   65.4400 hc      1390 PP       0.001900
  12506 H22        27.3300   74.2800   63.9000 hc      1390 PP       0.001900
  12507 H1         29.4000   73.4800   65.9700 hc      1390 PP       0.001800
  12508 HB1        29.8800   71.6400   64.2400 hc      1390 PP       0.063200
  12509 HB2        28.1900   71.6400   64.5600 hc      1390 PP       0.063200
  12510 HB3        28.7600   72.4200   63.0700 hc      1390 PP       0.063200
  12511 C2         30.2400   74.5800   64.4500 c3      1391 PP      -0.006100
  12512 C1         31.6100   73.9200   64.0400 c3      1391 PP       0.076800
  12513 CB         31.6600   73.4200   62.5400 c3      1391 PP      -0.265900
  12514 H21        29.8400   75.0500   63.5500 hc      1391 PP       0.001900
  12515 H22        30.3600   75.4100   65.1500 hc      1391 PP       0.001900
  12516 H1         31.7100   73.0700   64.7300 hc      1391 PP       0.001800
  12517 HB1        32.5000   73.9300   62.0600 hc      1391 PP       0.063200
  12518 HB2        31.8700   72.3500   62.5000 hc      1391 PP       0.063200
  12519 HB3        30.6700   73.5200   62.0700 hc      1391 PP       0.063200
  12520 C2         32.7800   74.9800   64.3400 c3      1392 PP      -0.006100
  12521 C1         33.7400   74.7100   65.4900 c3      1392 PP       0.076800
  12522 CB         32.8900   74.4100   66.8100 c3      1392 PP      -0.265900
  12523 H21        33.4300   75.1600   63.4700 hc      1392 PP       0.001900
  12524 H22        32.2500   75.9200   64.4800 hc      1392 PP       0.001900
  12525 H1         34.2500   75.6700   65.6100 hc      1392 PP       0.001800
  12526 HB1        33.5000   74.4200   67.7200 hc      1392 PP       0.063200
  12527 HB2        32.0900   75.1600   66.8100 hc      1392 PP       0.063200
  12528 HB3        32.4800   73.4000   66.7600 hc      1392 PP       0.063200
  12529 C2         34.7600   73.4800   65.1900 c3      1393 PP      -0.006100
  12530 C1         35.9700   73.4900   66.2500 c3      1393 PP       0.076800
  12531 CB         35.9500   72.2400   67.0500 c3      1393 PP      -0.265900
  12532 H21        34.1700   72.5600   65.1000 hc      1393 PP       0.001900
  12533 H22        35.2200   73.5300   64.2000 hc      1393 PP       0.001900
  12534 H1         35.8000   74.3600   66.9000 hc      1393 PP       0.001800
  12535 HB1        36.1100   71.4100   66.3400 hc      1393 PP       0.063200
  12536 HB2        36.7800   72.2600   67.7700 hc      1393 PP       0.063200
  12537 HB3        34.9200   72.1700   67.4300 hc      1393 PP       0.063200
  12538 C2         37.3000   73.6000   65.5600 c3      1394 PP      -0.006100
  12539 C1         37.6400   74.9900   64.9100 c3      1394 PP       0.076800
  12540 CB         37.9800   76.0700   66.0600 c3      1394 PP      -0.265900
  12541 H21        38.1200   73.3600   66.2500 hc      1394 PP       0.001900
  12542 H22        37.3900   72.8000   64.8100 hc      1394 PP       0.001900
  12543 H1         36.6900   75.3300   64.4800 hc      1394 PP       0.001800
  12544 HB1        38.5500   76.9100   65.6500 hc      1394 PP       0.063200
  12545 HB2        37.0600   76.4500   66.5100 hc      1394 PP       0.063200
  12546 HB3        38.6600   75.6000   66.7900 hc      1394 PP       0.063200
  12547 C2         38.8200   74.9700   63.8900 c3      1395 PP      -0.006100
  12548 C1         38.4600   75.1800   62.4200 c3      1395 PP       0.076800
  12549 CB         39.7100   75.5000   61.5400 c3      1395 PP      -0.265900
  12550 H21        39.5800   75.7000   64.1600 hc      1395 PP       0.001900
  12551 H22        39.3500   74.0100   63.9200 hc      1395 PP       0.001900
  12552 H1         37.8300   76.0700   62.4100 hc      1395 PP       0.001800
  12553 HB1        40.5400   74.8700   61.8900 hc      1395 PP       0.063200
  12554 HB2        39.6300   75.1800   60.4900 hc      1395 PP       0.063200
  12555 HB3        40.1000   76.5000   61.7500 hc      1395 PP       0.063200
  12556 C2         37.6400   74.0700   61.7500 c3      1396 PP      -0.006100
  12557 C1         36.4300   74.7600   60.8800 c3      1396 PP       0.076800
  12558 CB         36.8400   75.0300   59.4200 c3      1396 PP      -0.265900
  12559 H21        38.3500   73.4800   61.1600 hc      1396 PP       0.001900
  12560 H22        37.1700   73.5400   62.5800 hc      1396 PP       0.001900
  12561 H1         36.0800   75.7200   61.2900 hc      1396 PP       0.001800
  12562 HB1        35.9700   75.0000   58.7600 hc      1396 PP       0.063200
  12563 HB2        37.2000   76.0700   59.3800 hc      1396 PP       0.063200
  12564 HB3        37.5000   74.2800   58.9700 hc      1396 PP       0.063200
  12565 C2         35.0800   73.9000   60.8900 c3      1397 PP      -0.006100
  12566 C1         35.1000   72.4700   60.1700 c3      1397 PP       0.076800
  12567 CB         35.9300   71.5400   61.0600 c3      1397 PP      -0.265900
  12568 H21        34.8100   73.7000   61.9400 hc      1397 PP       0.001900
  12569 H22        34.2900   74.5200   60.4500 hc      1397 PP       0.001900
  12570 H1         35.6400   72.5200   59.2100 hc      1397 PP       0.001800
  12571 HB1        35.6600   71.6100   62.1200 hc      1397 PP       0.063200
  12572 HB2        35.6800   70.5300   60.7100 hc      1397 PP       0.063200
  12573 HB3        37.0100   71.7000   60.9400 hc      1397 PP       0.063200
  12574 C2         33.7000   71.8200   59.9000 c3      1398 PP      -0.006100
  12575 C1         32.6200   72.7100   59.1400 c3      1398 PP       0.076800
  12576 CB         33.1900   73.4600   57.8300 c3      1398 PP      -0.265900
  12577 H21        33.8200   70.8700   59.3600 hc      1398 PP       0.001900
  12578 H22        33.2400   71.4800   60.8400 hc      1398 PP       0.001900
  12579 H1         32.1400   73.4800   59.7600 hc      1398 PP       0.001800
  12580 HB1        33.6300   72.7000   57.1700 hc      1398 PP       0.063200
  12581 HB2        32.3400   73.9900   57.3800 hc      1398 PP       0.063200
  12582 HB3        33.9800   74.1800   58.0800 hc      1398 PP       0.063200
  12583 C2         31.4400   71.7600   58.7600 c3      1399 PP      -0.006100
  12584 C1         30.1100   72.4400   58.4400 c3      1399 PP       0.076800
  12585 CB         29.8000   72.2900   56.9100 c3      1399 PP      -0.265900
  12586 H21        31.7300   71.1200   57.9200 hc      1399 PP       0.001900
  12587 H22        31.2800   71.0800   59.6100 hc      1399 PP       0.001900
  12588 H1         30.0600   73.5300   58.5700 hc      1399 PP       0.001800
  12589 HB1        29.2900   71.3200   56.8100 hc      1399 PP       0.063200
  12590 HB2        29.0200   73.0100   56.6400 hc      1399 PP       0.063200
  12591 HB3        30.6100   72.4200   56.1900 hc      1399 PP       0.063200
  12592 C2         28.9400   71.7700   59.2400 c3      1400 PP      -0.006100
  12593 C1         27.6900   72.7000   59.3300 c3      1400 PP       0.076800
  12594 CB         26.4900   71.8300   59.7200 c3      1400 PP      -0.265900
  12595 H21        28.6400   70.8000   58.8200 hc      1400 PP       0.001900
  12596 H22        29.3100   71.6200   60.2600 hc      1400 PP       0.001900
  12597 H1         27.5500   73.1700   58.3500 hc      1400 PP       0.001800
  12598 HB1        26.4500   70.8700   59.1800 hc      1400 PP       0.063200
  12599 HB2        26.4400   71.4500   60.7500 hc      1400 PP       0.063200
  12600 HB3        25.5700   72.3700   59.4700 hc      1400 PP       0.063200
  12601 C2         27.8700   73.8400   60.3100 c3      1401 PP      -0.006100
  12602 C1         26.7500   74.9500   60.1200 c3      1401 PP       0.076800
  12603 CB         25.5100   74.7600   61.0100 c3      1401 PP      -0.265900
  12604 H21        27.9000   73.3700   61.3000 hc      1401 PP       0.001900
  12605 H22        28.8300   74.3500   60.1500 hc      1401 PP       0.001900
  12606 H1         26.4900   74.8900   59.0500 hc      1401 PP       0.001800
  12607 HB1        24.8300   75.6200   60.9900 hc      1401 PP       0.063200
  12608 HB2        24.9400   73.8800   60.6900 hc      1401 PP       0.063200
  12609 HB3        25.8100   74.6100   62.0500 hc      1401 PP       0.063200
  12610 C2         27.5700   76.3100   60.2800 c3      1402 PP      -0.006100
  12611 C1         26.6100   77.6400   60.2900 c3      1402 PP       0.076800
  12612 CB         26.2500   77.9100   61.7600 c3      1402 PP      -0.265900
  12613 H21        28.2100   76.1900   61.1700 hc      1402 PP       0.001900
  12614 H22        28.3300   76.3500   59.4900 hc      1402 PP       0.001900
  12615 H1         25.6700   77.4300   59.7700 hc      1402 PP       0.001800
  12616 HB1        27.1900   78.1800   62.2600 hc      1402 PP       0.063200
  12617 HB2        25.6100   78.8000   61.7900 hc      1402 PP       0.063200
  12618 HB3        25.7300   77.1500   62.3500 hc      1402 PP       0.063200
  12619 C2         27.2300   78.9200   59.7300 c3      1403 PP      -0.006100
  12620 C1         27.6100   79.0100   58.2000 c3      1403 PP       0.076800
  12621 CB         29.1300   79.0500   58.0900 c3      1403 PP      -0.265900
  12622 H21        26.6100   79.7700   60.0300 hc      1403 PP       0.001900
  12623 H22        28.1100   79.1200   60.3600 hc      1403 PP       0.001900
  12624 H1         27.3400   80.0000   57.8000 hc      1403 PP       0.001800
  12625 HB1        29.5500   78.1100   58.4500 hc      1403 PP       0.063200
  12626 HB2        29.4800   79.3500   57.0900 hc      1403 PP       0.063200
  12627 HB3        29.6400   79.7800   58.7400 hc      1403 PP       0.063200
  12628 C2         26.9300   78.0700   57.2500 c3      1404 PP      -0.006100
  12629 C1         25.4400   78.3500   57.0500 c3      1404 PP       0.076800
  12630 CB         25.3600   79.5900   56.0400 c3      1404 PP      -0.265900
  12631 H21        27.4100   78.1300   56.2600 hc      1404 PP       0.001900
  12632 H22        27.0800   77.0400   57.6000 hc      1404 PP       0.001900
  12633 H1         25.0800   78.7400   58.0100 hc      1404 PP       0.001800
  12634 HB1        25.6800   80.5600   56.4200 hc      1404 PP       0.063200
  12635 HB2        25.8900   79.3800   55.1000 hc      1404 PP       0.063200
  12636 HB3        24.3400   79.8700   55.7700 hc      1404 PP       0.063200
  12637 C2         24.6000   77.1000   56.6800 c3      1405 PP      -0.006100
  12638 C1         23.1100   77.0800   57.1100 c3      1405 PP       0.076800
  12639 CB         22.2600   78.3700   57.1100 c3      1405 PP      -0.265900
  12640 H21        24.6300   76.9700   55.5900 hc      1405 PP       0.001900
  12641 H22        24.9600   76.2000   57.2000 hc      1405 PP       0.001900
  12642 H1         23.2200   76.9600   58.2000 hc      1405 PP       0.001800
  12643 HB1        22.6800   79.1000   57.8000 hc      1405 PP       0.063200
  12644 HB2        22.3100   78.8100   56.1000 hc      1405 PP       0.063200
  12645 HB3        21.2200   78.2300   57.4500 hc      1405 PP       0.063200
  12646 C2         22.4000   75.8000   56.5300 c3      1406 PP      -0.006100
  12647 C1         21.7500   74.8200   57.5500 c3      1406 PP       0.076800
  12648 CB         22.7900   74.1500   58.4900 c3      1406 PP      -0.265900
  12649 H21        21.6800   76.2300   55.8300 hc      1406 PP       0.001900
  12650 H22        23.1100   75.2900   55.8700 hc      1406 PP       0.001900
  12651 H1         21.3500   74.0100   56.9200 hc      1406 PP       0.001800
  12652 HB1        23.7100   73.8800   57.9400 hc      1406 PP       0.063200
  12653 HB2        23.2100   74.7100   59.3300 hc      1406 PP       0.063200
  12654 HB3        22.3700   73.2600   58.9800 hc      1406 PP       0.063200
  12655 C2         20.6000   75.3700   58.3600 c3      1407 PP      -0.006100
  12656 C1         19.3800   75.9600   57.6100 c3      1407 PP       0.076800
  12657 CB         18.6300   74.7700   56.7500 c3      1407 PP      -0.265900
  12658 H21        20.1600   74.5700   58.9600 hc      1407 PP       0.001900
  12659 H22        20.9500   76.1200   59.0800 hc      1407 PP       0.001900
  12660 H1         19.7600   76.6400   56.8400 hc      1407 PP       0.001800
  12661 HB1        18.3700   73.9300   57.4100 hc      1407 PP       0.063200
  12662 HB2        17.7000   75.1700   56.3300 hc      1407 PP       0.063200
  12663 HB3        19.2500   74.3700   55.9400 hc      1407 PP       0.063200
  12664 C2         18.5400   76.7600   58.5800 c3      1408 PP      -0.006100
  12665 C1         17.2300   77.3900   58.0200 c3      1408 PP       0.076800
  12666 CB         16.3600   78.0600   59.2200 c3      1408 PP      -0.265900
  12667 H21        18.3100   76.0000   59.3300 hc      1408 PP       0.001900
  12668 H22        19.0800   77.5700   59.0800 hc      1408 PP       0.001900
  12669 H1         16.6000   76.6900   57.4500 hc      1408 PP       0.001800
  12670 HB1        16.9400   78.8600   59.7000 hc      1408 PP       0.063200
  12671 HB2        15.3600   78.3900   58.8800 hc      1408 PP       0.063200
  12672 HB3        16.1600   77.2900   59.9700 hc      1408 PP       0.063200
  12673 C2         17.5100   78.3900   56.9200 c3      1409 PP      -0.006100
  12674 C1         17.1700   77.9800   55.4600 c3      1409 PP       0.076800
  12675 CB         15.6600   77.7700   55.2000 c3      1409 PP      -0.265900
  12676 H21        16.8600   79.2600   57.0500 hc      1409 PP       0.001900
  12677 H22        18.5800   78.6400   56.9300 hc      1409 PP       0.001900
  12678 H1         17.6700   77.0300   55.2700 hc      1409 PP       0.001800
  12679 HB1        15.1700   77.1400   55.9400 hc      1409 PP       0.063200
  12680 HB2        15.1200   78.7200   55.3300 hc      1409 PP       0.063200
  12681 HB3        15.4200   77.3300   54.2200 hc      1409 PP       0.063200
  12682 C2         17.7000   78.9300   54.4100 c3      1410 PP      -0.006100
  12683 C1         19.2500   78.9900   54.2200 c3      1410 PP       0.076800
  12684 CB         19.9700   77.8400   53.6600 c3      1410 PP      -0.265900
  12685 H21        17.3000   79.9400   54.5600 hc      1410 PP       0.001900
  12686 H22        17.2500   78.5700   53.4700 hc      1410 PP       0.001900
  12687 H1         19.7000   79.4800   55.1000 hc      1410 PP       0.001800
  12688 HB1        21.0400   78.0300   53.5300 hc      1410 PP       0.063200
  12689 HB2        19.8600   77.0400   54.4000 hc      1410 PP       0.063200
  12690 HB3        19.5300   77.5600   52.6900 hc      1410 PP       0.063200
  12691 C2         78.9200   36.6900   58.0700 c3      1411 PP      -0.006100
  12692 C1         79.0000   35.3400   57.3300 c3      1411 PP       0.076800
  12693 CB         77.6600   34.7600   57.0000 c3      1411 PP      -0.265900
  12694 H21        78.7500   37.5100   57.3600 hc      1411 PP       0.001900
  12695 H22        78.1500   36.6400   58.8500 hc      1411 PP       0.001900
  12696 H1         79.4800   34.6800   58.0600 hc      1411 PP       0.001800
  12697 HB1        77.7400   33.9000   56.3200 hc      1411 PP       0.063200
  12698 HB2        77.1400   34.4800   57.9300 hc      1411 PP       0.063200
  12699 HB3        77.0500   35.5300   56.5100 hc      1411 PP       0.063200
  12700 C2         -0.0500   35.4700   56.1400 c3      1412 PP      -0.006100
  12701 C1          1.4900   35.2900   56.4500 c3      1412 PP       0.076800
  12702 CB          1.9900   33.9500   55.7400 c3      1412 PP      -0.265900
  12703 H21        -0.2600   34.6200   55.4800 hc      1412 PP       0.001900
  12704 H22        -0.1700   36.4200   55.5900 hc      1412 PP       0.001900
  12705 H1          1.5500   35.2500   57.5500 hc      1412 PP       0.001800
  12706 HB1         1.9500   34.0600   54.6500 hc      1412 PP       0.063200
  12707 HB2         3.0700   33.8200   55.8900 hc      1412 PP       0.063200
  12708 HB3         1.4600   33.0300   56.0300 hc      1412 PP       0.063200
  12709 C2          2.2200   36.6400   56.0000 c3      1413 PP      -0.006100
  12710 C1          3.7900   36.4200   55.9700 c3      1413 PP       0.076800
  12711 CB          4.6100   37.4900   55.1800 c3      1413 PP      -0.265900
  12712 H21         1.8900   36.8500   54.9700 hc      1413 PP       0.001900
  12713 H22         2.0100   37.5600   56.5700 hc      1413 PP       0.001900
  12714 H1          4.0600   35.4800   55.4600 hc      1413 PP       0.001800
  12715 HB1         4.2200   37.6800   54.1800 hc      1413 PP       0.063200
  12716 HB2         4.7600   38.4500   55.7000 hc      1413 PP       0.063200
  12717 HB3         5.6300   37.1100   55.0400 hc      1413 PP       0.063200
  12718 C2          4.2600   36.2700   57.4500 c3      1414 PP      -0.006100
  12719 C1          5.9000   36.2100   57.7200 c3      1414 PP       0.076800
  12720 CB          6.1600   36.2400   59.2300 c3      1414 PP      -0.265900
  12721 H21         3.8900   37.1600   57.9800 hc      1414 PP       0.001900
  12722 H22         3.8000   35.4300   57.9800 hc      1414 PP       0.001900
  12723 H1          6.4300   37.0800   57.3100 hc      1414 PP       0.001800
  12724 HB1         5.8900   35.2700   59.6600 hc      1414 PP       0.063200
  12725 HB2         7.1700   36.4900   59.5600 hc      1414 PP       0.063200
  12726 HB3         5.4500   36.8300   59.8200 hc      1414 PP       0.063200
  12727 C2          6.3500   34.9100   57.0500 c3      1415 PP      -0.006100
  12728 C1          7.7300   34.3600   57.5900 c3      1415 PP       0.076800
  12729 CB          7.9500   32.9500   57.0400 c3      1415 PP      -0.265900
  12730 H21         5.5700   34.1600   57.2500 hc      1415 PP       0.001900
  12731 H22         6.4800   35.0600   55.9800 hc      1415 PP       0.001900
  12732 H1          7.6800   34.1500   58.6600 hc      1415 PP       0.001800
  12733 HB1         8.7800   32.4700   57.5900 hc      1415 PP       0.063200
  12734 HB2         7.0900   32.3400   57.3200 hc      1415 PP       0.063200
  12735 HB3         8.1900   32.9600   55.9700 hc      1415 PP       0.063200
  12736 C2          8.9000   35.2900   57.1400 c3      1416 PP      -0.006100
  12737 C1         10.3400   35.0500   57.7100 c3      1416 PP       0.076800
  12738 CB         11.3700   35.4900   56.6000 c3      1416 PP      -0.265900
  12739 H21         8.9100   35.3400   56.0400 hc      1416 PP       0.001900
  12740 H22         8.6700   36.3400   57.3500 hc      1416 PP       0.001900
  12741 H1         10.4400   33.9600   57.7500 hc      1416 PP       0.001800
  12742 HB1        11.2100   36.5600   56.4200 hc      1416 PP       0.063200
  12743 HB2        12.3800   35.2300   56.9500 hc      1416 PP       0.063200
  12744 HB3        11.2800   34.9700   55.6400 hc      1416 PP       0.063200
  12745 C2         10.4600   35.7100   59.1400 c3      1417 PP      -0.006100
  12746 C1         11.7700   35.4000   59.9500 c3      1417 PP       0.076800
  12747 CB         12.6600   36.6700   60.1800 c3      1417 PP      -0.265900
  12748 H21        10.3200   36.8000   59.1400 hc      1417 PP       0.001900
  12749 H22         9.5700   35.4600   59.7300 hc      1417 PP       0.001900
  12750 H1         12.3200   34.7000   59.3000 hc      1417 PP       0.001800
  12751 HB1        12.2300   37.4200   60.8600 hc      1417 PP       0.063200
  12752 HB2        13.6000   36.3300   60.6400 hc      1417 PP       0.063200
  12753 HB3        12.9600   37.0800   59.2100 hc      1417 PP       0.063200
  12754 C2         11.5000   34.6500   61.3200 c3      1418 PP      -0.006100
  12755 C1         11.0100   33.1600   61.1300 c3      1418 PP       0.076800
  12756 CB         12.2700   32.2700   61.0200 c3      1418 PP      -0.265900
  12757 H21        12.3900   34.5700   61.9500 hc      1418 PP       0.001900
  12758 H22        10.7800   35.1600   61.9700 hc      1418 PP       0.001900
  12759 H1         10.4900   33.0200   60.1700 hc      1418 PP       0.001800
  12760 HB1        12.9500   32.6700   60.2500 hc      1418 PP       0.063200
  12761 HB2        12.7700   32.1300   61.9800 hc      1418 PP       0.063200
  12762 HB3        11.8600   31.2900   60.7500 hc      1418 PP       0.063200
  12763 C2         10.1100   32.6400   62.2000 c3      1419 PP      -0.006100
  12764 C1          8.7100   33.2100   62.0300 c3      1419 PP       0.076800
  12765 CB          7.7900   32.4200   60.9300 c3      1419 PP      -0.265900
  12766 H21        10.3700   31.5900   62.4000 hc      1419 PP       0.001900
  12767 H22        10.4500   33.1600   63.1100 hc      1419 PP       0.001900
  12768 H1          8.9000   34.2300   61.6600 hc      1419 PP       0.001800
  12769 HB1         6.8800   33.0200   60.7900 hc      1419 PP       0.063200
  12770 HB2         8.3300   32.3100   59.9800 hc      1419 PP       0.063200
  12771 HB3         7.5400   31.4500   61.3700 hc      1419 PP       0.063200
  12772 C2          7.8500   33.2500   63.4300 c3      1420 PP      -0.006100
  12773 C1          7.8200   34.6400   63.9000 c3      1420 PP       0.076800
  12774 CB          6.9000   35.5400   63.0300 c3      1420 PP      -0.265900
  12775 H21         6.8800   32.7500   63.3200 hc      1420 PP       0.001900
  12776 H22         8.3100   32.5800   64.1600 hc      1420 PP       0.001900
  12777 H1          8.8400   35.0300   63.9200 hc      1420 PP       0.001800
  12778 HB1         5.8500   35.2600   62.9100 hc      1420 PP       0.063200
  12779 HB2         6.8500   36.5500   63.4600 hc      1420 PP       0.063200
  12780 HB3         7.3800   35.6600   62.0500 hc      1420 PP       0.063200
  12781 C2          7.3700   34.7300   65.3900 c3      1421 PP      -0.006100
  12782 C1          5.9600   34.1100   65.7700 c3      1421 PP       0.076800
  12783 CB          5.9700   33.1900   67.0500 c3      1421 PP      -0.265900
  12784 H21         8.0500   34.2300   66.0900 hc      1421 PP       0.001900
  12785 H22         7.4600   35.7200   65.8400 hc      1421 PP       0.001900
  12786 H1          5.5600   33.6300   64.8700 hc      1421 PP       0.001800
  12787 HB1         6.8400   32.5300   67.0100 hc      1421 PP       0.063200
  12788 HB2         5.8900   33.6900   68.0200 hc      1421 PP       0.063200
  12789 HB3         5.1700   32.4400   66.9800 hc      1421 PP       0.063200
  12790 C2          4.8800   35.2100   65.9500 c3      1422 PP      -0.006100
  12791 C1          3.4200   34.6600   66.3400 c3      1422 PP       0.076800
  12792 CB          2.4400   35.8200   66.7200 c3      1422 PP      -0.265900
  12793 H21         5.1300   35.8900   66.7700 hc      1422 PP       0.001900
  12794 H22         4.9000   35.8100   65.0300 hc      1422 PP       0.001900
  12795 H1          3.4300   33.8900   67.1300 hc      1422 PP       0.001800
  12796 HB1         2.8300   36.3300   67.6100 hc      1422 PP       0.063200
  12797 HB2         2.4400   36.6200   65.9700 hc      1422 PP       0.063200
  12798 HB3         1.4000   35.5300   66.8700 hc      1422 PP       0.063200
  12799 C2          2.8300   33.7800   65.1000 c3      1423 PP      -0.006100
  12800 C1          2.5700   34.5000   63.7000 c3      1423 PP       0.076800
  12801 CB          3.2400   33.7500   62.5700 c3      1423 PP      -0.265900
  12802 H21         3.3900   32.8600   64.9300 hc      1423 PP       0.001900
  12803 H22         1.9100   33.3100   65.4800 hc      1423 PP       0.001900
  12804 H1          3.1100   35.4500   63.6600 hc      1423 PP       0.001800
  12805 HB1         3.1700   34.2200   61.5800 hc      1423 PP       0.063200
  12806 HB2         4.3200   33.6900   62.7700 hc      1423 PP       0.063200
  12807 HB3         2.8500   32.7300   62.4600 hc      1423 PP       0.063200
  12808 C2          1.0000   34.7900   63.4100 c3      1424 PP      -0.006100
  12809 C1          0.6500   35.9200   62.3600 c3      1424 PP       0.076800
  12810 CB          0.2500   35.4000   60.9200 c3      1424 PP      -0.265900
  12811 H21         0.5100   33.8500   63.1400 hc      1424 PP       0.001900
  12812 H22         0.5900   35.1200   64.3700 hc      1424 PP       0.001900
  12813 H1          1.5000   36.6100   62.3200 hc      1424 PP       0.001800
  12814 HB1         0.5500   36.1500   60.1700 hc      1424 PP       0.063200
  12815 HB2         0.8700   34.5300   60.6800 hc      1424 PP       0.063200
  12816 HB3        -0.8300   35.2200   60.8000 hc      1424 PP       0.063200
  12817 C2         79.5300   36.8900   62.9400 c3      1425 PP      -0.006100
  12818 C1         79.1100   38.0800   62.0100 c3      1425 PP       0.076800
  12819 CB         77.5900   38.0600   61.9000 c3      1425 PP      -0.265900
  12820 H21        78.7000   36.1900   63.0900 hc      1425 PP       0.001900
  12821 H22        79.7300   37.2700   63.9500 hc      1425 PP       0.001900
  12822 H1         79.4500   37.9500   60.9700 hc      1425 PP       0.001800
  12823 HB1        77.1300   38.7700   61.2100 hc      1425 PP       0.063200
  12824 HB2        77.2600   37.0400   61.6600 hc      1425 PP       0.063200
  12825 HB3        77.2600   38.2500   62.9300 hc      1425 PP       0.063200
  12826 C2         79.7000   39.3900   62.5400 c3      1426 PP      -0.006100
  12827 C1         79.5200   40.5200   61.4600 c3      1426 PP       0.076800
  12828 CB         78.7400   41.6600   62.0500 c3      1426 PP      -0.265900
  12829 H21        79.2400   39.6400   63.5100 hc      1426 PP       0.001900
  12830 H22        80.7600   39.2100   62.7200 hc      1426 PP       0.001900
  12831 H1         78.9000   40.2300   60.6000 hc      1426 PP       0.001800
  12832 HB1        77.9600   41.4300   62.7900 hc      1426 PP       0.063200
  12833 HB2        79.4500   42.2300   62.6700 hc      1426 PP       0.063200
  12834 HB3        78.2700   42.3100   61.3100 hc      1426 PP       0.063200
  12835 C2          0.9700   40.9700   61.0200 c3      1427 PP      -0.006100
  12836 C1          1.9400   39.9900   60.3300 c3      1427 PP       0.076800
  12837 CB          1.3900   39.5000   59.0200 c3      1427 PP      -0.265900
  12838 H21         0.9200   41.8600   60.3800 hc      1427 PP       0.001900
  12839 H22         1.4800   41.4000   61.8900 hc      1427 PP       0.001900
  12840 H1          2.0800   39.1600   61.0400 hc      1427 PP       0.001800
  12841 HB1         0.4900   38.9100   59.2400 hc      1427 PP       0.063200
  12842 HB2         1.2300   40.2500   58.2400 hc      1427 PP       0.063200
  12843 HB3         2.0800   38.8000   58.5300 hc      1427 PP       0.063200
  12844 C2          3.2800   40.7100   60.1000 c3      1428 PP      -0.006100
  12845 C1          4.5300   39.7600   59.9300 c3      1428 PP       0.076800
  12846 CB          5.3400   40.0700   58.6000 c3      1428 PP      -0.265900
  12847 H21         3.1100   41.3900   59.2500 hc      1428 PP       0.001900
  12848 H22         3.4500   41.3300   60.9900 hc      1428 PP       0.001900
  12849 H1          4.1800   38.7400   59.7500 hc      1428 PP       0.001800
  12850 HB1         4.8400   40.8000   57.9500 hc      1428 PP       0.063200
  12851 HB2         6.3400   40.5000   58.7600 hc      1428 PP       0.063200
  12852 HB3         5.4800   39.1900   57.9700 hc      1428 PP       0.063200
  12853 C2          5.4500   39.8000   61.1800 c3      1429 PP      -0.006100
  12854 C1          4.7900   39.4500   62.5100 c3      1429 PP       0.076800
  12855 CB          4.3300   37.9300   62.5200 c3      1429 PP      -0.265900
  12856 H21         6.3000   39.1200   61.0200 hc      1429 PP       0.001900
  12857 H22         5.8500   40.8200   61.2500 hc      1429 PP       0.001900
  12858 H1          3.9500   40.1400   62.5900 hc      1429 PP       0.001800
  12859 HB1         3.4400   37.6900   61.9200 hc      1429 PP       0.063200
  12860 HB2         5.1100   37.2900   62.0900 hc      1429 PP       0.063200
  12861 HB3         4.1000   37.3800   63.4400 hc      1429 PP       0.063200
  12862 C2          5.8600   39.6700   63.6600 c3      1430 PP      -0.006100
  12863 C1          5.1900   40.1000   65.0100 c3      1430 PP       0.076800
  12864 CB          4.9800   38.9100   66.0200 c3      1430 PP      -0.265900
  12865 H21         6.5000   38.7900   63.8200 hc      1430 PP       0.001900
  12866 H22         6.4300   40.5100   63.2600 hc      1430 PP       0.001900
  12867 H1          4.2100   40.5100   64.7300 hc      1430 PP       0.001800
  12868 HB1         4.0400   38.3500   66.0200 hc      1430 PP       0.063200
  12869 HB2         5.8500   38.3000   66.2900 hc      1430 PP       0.063200
  12870 HB3         4.7300   39.3900   66.9800 hc      1430 PP       0.063200
  12871 C2          6.1200   41.1100   65.7400 c3      1431 PP      -0.006100
  12872 C1          5.4400   42.5000   66.0000 c3      1431 PP       0.076800
  12873 CB          6.2800   43.3200   67.0600 c3      1431 PP      -0.265900
  12874 H21         6.3700   40.7000   66.7300 hc      1431 PP       0.001900
  12875 H22         7.0100   41.2500   65.1200 hc      1431 PP       0.001900
  12876 H1          4.4200   42.3100   66.3500 hc      1431 PP       0.001800
  12877 HB1         5.7200   44.2400   67.2500 hc      1431 PP       0.063200
  12878 HB2         6.4300   42.8200   68.0200 hc      1431 PP       0.063200
  12879 HB3         7.3100   43.5000   66.7300 hc      1431 PP       0.063200
  12880 C2          5.5800   43.2700   64.6200 c3      1432 PP      -0.006100
  12881 C1          4.3000   44.0500   64.2500 c3      1432 PP       0.076800
  12882 CB          3.1900   43.0900   63.9100 c3      1432 PP      -0.265900
  12883 H21         6.3600   44.0400   64.6600 hc      1432 PP       0.001900
  12884 H22         5.8700   42.5900   63.8200 hc      1432 PP       0.001900
  12885 H1          4.5500   44.5700   63.3200 hc      1432 PP       0.001800
  12886 HB1         2.6900   42.7400   64.8200 hc      1432 PP       0.063200
  12887 HB2         2.4600   43.5700   63.2400 hc      1432 PP       0.063200
  12888 HB3         3.6500   42.1700   63.5100 hc      1432 PP       0.063200
  12889 C2          3.8700   45.0900   65.3700 c3      1433 PP      -0.006100
  12890 C1          2.6000   46.0400   64.9900 c3      1433 PP       0.076800
  12891 CB          1.9100   46.6200   66.2400 c3      1433 PP      -0.265900
  12892 H21         3.5200   44.4900   66.2100 hc      1433 PP       0.001900
  12893 H22         4.7100   45.6700   65.7800 hc      1433 PP       0.001900
  12894 H1          1.8900   45.3100   64.5900 hc      1433 PP       0.001800
  12895 HB1         0.8800   46.9400   66.0400 hc      1433 PP       0.063200
  12896 HB2         1.8200   45.8800   67.0500 hc      1433 PP       0.063200
  12897 HB3         2.3400   47.5400   66.6400 hc      1433 PP       0.063200
  12898 C2          2.9400   47.2000   64.0200 c3      1434 PP      -0.006100
  12899 C1          2.0700   47.2300   62.7500 c3      1434 PP       0.076800
  12900 CB          1.7600   48.7000   62.3600 c3      1434 PP      -0.265900
  12901 H21         2.7200   48.1400   64.5400 hc      1434 PP       0.001900
  12902 H22         4.0300   47.2300   63.9200 hc      1434 PP       0.001900
  12903 H1          1.0900   46.9100   63.1400 hc      1434 PP       0.001800
  12904 HB1         2.6300   49.1900   61.9200 hc      1434 PP       0.063200
  12905 HB2         1.0300   48.8900   61.5500 hc      1434 PP       0.063200
  12906 HB3         1.4500   49.2600   63.2500 hc      1434 PP       0.063200
  12907 C2          2.5200   46.3400   61.5600 c3      1435 PP      -0.006100
  12908 C1          1.3700   45.7900   60.6200 c3      1435 PP       0.076800
  12909 CB          2.0100   44.7200   59.6000 c3      1435 PP      -0.265900
  12910 H21         3.2600   46.9100   60.9900 hc      1435 PP       0.001900
  12911 H22         3.1300   45.5200   61.9500 hc      1435 PP       0.001900
  12912 H1          1.0500   46.6300   60.0000 hc      1435 PP       0.001800
  12913 HB1         2.4500   43.8900   60.1700 hc      1435 PP       0.063200
  12914 HB2         1.1900   44.2700   59.0200 hc      1435 PP       0.063200
  12915 HB3         2.5800   45.2400   58.8300 hc      1435 PP       0.063200
  12916 C2         80.2300   45.1100   61.2700 c3      1436 PP      -0.006100
  12917 C1         78.9100   45.9200   61.1600 c3      1436 PP       0.076800
  12918 CB         78.3800   45.6900   59.6600 c3      1436 PP      -0.265900
  12919 H21        80.0100   44.1600   60.7700 hc      1436 PP       0.001900
  12920 H22        80.4100   45.0400   62.3500 hc      1436 PP       0.001900
  12921 H1         79.1000   46.9700   61.4500 hc      1436 PP       0.001800
  12922 HB1        78.2900   44.6200   59.4400 hc      1436 PP       0.063200
  12923 HB2        77.4100   46.1400   59.4300 hc      1436 PP       0.063200
  12924 HB3        79.1100   46.0900   58.9500 hc      1436 PP       0.063200
  12925 C2         77.7500   45.4400   62.0100 c3      1437 PP      -0.006100
  12926 C1         77.9200   45.5100   63.4900 c3      1437 PP       0.076800
  12927 CB         77.9400   46.9900   63.9500 c3      1437 PP      -0.265900
  12928 H21        76.9000   46.0900   61.7700 hc      1437 PP       0.001900
  12929 H22        77.6000   44.3900   61.7100 hc      1437 PP       0.001900
  12930 H1         78.9000   45.0900   63.7500 hc      1437 PP       0.001800
  12931 HB1        77.8700   47.0300   65.0500 hc      1437 PP       0.063200
  12932 HB2        78.7300   47.6200   63.5200 hc      1437 PP       0.063200
  12933 HB3        76.9700   47.4200   63.6600 hc      1437 PP       0.063200
  12934 C2         76.7200   44.7600   64.1500 c3      1438 PP      -0.006100
  12935 C1         76.8700   44.2600   65.6600 c3      1438 PP       0.076800
  12936 CB         75.3900   44.0700   66.1600 c3      1438 PP      -0.265900
  12937 H21        75.7800   45.3000   64.0100 hc      1438 PP       0.001900
  12938 H22        76.6600   43.8300   63.5800 hc      1438 PP       0.001900
  12939 H1         77.4900   44.9700   66.2200 hc      1438 PP       0.001800
  12940 HB1        74.9000   43.3100   65.5300 hc      1438 PP       0.063200
  12941 HB2        75.2500   43.9200   67.2400 hc      1438 PP       0.063200
  12942 HB3        74.8100   44.9900   66.0800 hc      1438 PP       0.063200
  12943 C2         77.5200   42.8600   65.9200 c3      1439 PP      -0.006100
  12944 C1         79.0500   42.7500   65.6800 c3      1439 PP       0.076800
  12945 CB         79.8500   43.8300   66.5100 c3      1439 PP      -0.265900
  12946 H21        77.3000   42.5600   66.9500 hc      1439 PP       0.001900
  12947 H22        76.9900   42.0800   65.3600 hc      1439 PP       0.001900
  12948 H1         79.3400   43.1100   64.6900 hc      1439 PP       0.001800
  12949 HB1        79.6300   43.6700   67.5800 hc      1439 PP       0.063200
  12950 HB2        80.9300   43.7800   66.3100 hc      1439 PP       0.063200
  12951 HB3        79.5500   44.8700   66.3700 hc      1439 PP       0.063200
  12952 C2         -0.5400   41.3300   65.9800 c3      1440 PP      -0.006100
  12953 C1          0.9200   41.0100   65.6600 c3      1440 PP       0.076800
  12954 CB          1.2900   39.5400   65.9500 c3      1440 PP      -0.265900
  12955 H21        -1.2500   40.5900   65.5700 hc      1440 PP       0.001900
  12956 H22        -0.6000   41.2100   67.0700 hc      1440 PP       0.001900
  12957 H1          1.5400   41.5900   66.3500 hc      1440 PP       0.001800
  12958 HB1         1.8300   39.3700   66.8800 hc      1440 PP       0.063200
  12959 HB2         0.3200   39.0600   66.1100 hc      1440 PP       0.063200
  12960 HB3         1.7900   39.0700   65.0900 hc      1440 PP       0.063200
  12961 C2         43.7600   41.2100   66.1500 c3      1441 PP      -0.006100
  12962 C1         45.1000   41.4000   65.2300 c3      1441 PP       0.076800
  12963 CB         44.8500   40.6100   63.9300 c3      1441 PP      -0.265900
  12964 H21        43.3400   40.2000   66.2100 hc      1441 PP       0.001900
  12965 H22        42.9900   41.8000   65.6300 hc      1441 PP       0.001900
  12966 H1         45.8700   40.8400   65.7800 hc      1441 PP       0.001800
  12967 HB1        44.0700   41.1500   63.3800 hc      1441 PP       0.063200
  12968 HB2        45.6700   40.6300   63.1900 hc      1441 PP       0.063200
  12969 HB3        44.5600   39.5800   64.1400 hc      1441 PP       0.063200
  12970 C2         45.4600   42.8500   64.9500 c3      1442 PP      -0.006100
  12971 C1         46.1300   43.5200   66.3000 c3      1442 PP       0.076800
  12972 CB         47.4700   42.8500   66.5000 c3      1442 PP      -0.265900
  12973 H21        46.1500   42.9200   64.1000 hc      1442 PP       0.001900
  12974 H22        44.5000   43.3100   64.6700 hc      1442 PP       0.001900
  12975 H1         45.4900   43.3400   67.1700 hc      1442 PP       0.001800
  12976 HB1        47.8700   42.4800   65.5500 hc      1442 PP       0.063200
  12977 HB2        48.2000   43.5100   66.9800 hc      1442 PP       0.063200
  12978 HB3        47.4100   41.9000   67.0500 hc      1442 PP       0.063200
  12979 C2         46.1700   45.0400   66.1500 c3      1443 PP      -0.006100
  12980 C1         44.9100   45.8000   65.6000 c3      1443 PP       0.076800
  12981 CB         43.5900   45.5600   66.3500 c3      1443 PP      -0.265900
  12982 H21        46.3800   45.4500   67.1400 hc      1443 PP       0.001900
  12983 H22        46.9500   45.2900   65.4200 hc      1443 PP       0.001900
  12984 H1         44.6300   45.4900   64.5800 hc      1443 PP       0.001800
  12985 HB1        43.2200   44.5300   66.2600 hc      1443 PP       0.063200
  12986 HB2        43.6700   45.9600   67.3700 hc      1443 PP       0.063200
  12987 HB3        42.9500   46.2300   65.7600 hc      1443 PP       0.063200
  12988 C2         45.2200   47.3700   65.6200 c3      1444 PP      -0.006100
  12989 C1         45.9500   48.0500   64.3800 c3      1444 PP       0.076800
  12990 CB         44.9600   48.2800   63.1700 c3      1444 PP      -0.265900
  12991 H21        44.3100   47.9300   65.8300 hc      1444 PP       0.001900
  12992 H22        45.7800   47.5500   66.5400 hc      1444 PP       0.001900
  12993 H1         46.7300   47.3500   64.0500 hc      1444 PP       0.001800
  12994 HB1        43.9800   48.6800   63.4700 hc      1444 PP       0.063200
  12995 HB2        45.4200   49.0400   62.5400 hc      1444 PP       0.063200
  12996 HB3        44.6400   47.3600   62.6600 hc      1444 PP       0.063200
  12997 C2         46.6100   49.4500   64.7400 c3      1445 PP      -0.006100
  12998 C1         48.1400   49.1900   65.1800 c3      1445 PP       0.076800
  12999 CB         49.1500   49.2000   64.0000 c3      1445 PP      -0.265900
  13000 H21        46.6100   50.2300   63.9800 hc      1445 PP       0.001900
  13001 H22        45.9400   49.9100   65.4800 hc      1445 PP       0.001900
  13002 H1         48.1700   48.1800   65.6000 hc      1445 PP       0.001800
  13003 HB1        48.8000   48.5100   63.2300 hc      1445 PP       0.063200
  13004 HB2        49.3200   50.1600   63.4900 hc      1445 PP       0.063200
  13005 HB3        50.1600   48.8500   64.2600 hc      1445 PP       0.063200
  13006 C2         48.5100   50.3200   66.2800 c3      1446 PP      -0.006100
  13007 C1         48.3000   51.8500   65.8800 c3      1446 PP       0.076800
  13008 CB         47.4400   52.5300   66.8800 c3      1446 PP      -0.265900
  13009 H21        47.9600   50.1100   67.2000 hc      1446 PP       0.001900
  13010 H22        49.5500   50.0700   66.5000 hc      1446 PP       0.001900
  13011 H1         47.6700   51.9300   64.9900 hc      1446 PP       0.001800
  13012 HB1        46.6000   51.8600   67.0800 hc      1446 PP       0.063200
  13013 HB2        47.9700   52.6900   67.8300 hc      1446 PP       0.063200
  13014 HB3        47.0400   53.4900   66.5400 hc      1446 PP       0.063200
  13015 C2         49.6700   52.5900   65.5800 c3      1447 PP      -0.006100
  13016 C1         49.5500   54.1100   65.1700 c3      1447 PP       0.076800
  13017 CB         49.6300   55.0800   66.3200 c3      1447 PP      -0.265900
  13018 H21        50.3000   52.5800   66.4700 hc      1447 PP       0.001900
  13019 H22        50.0700   52.0400   64.7200 hc      1447 PP       0.001900
  13020 H1         48.5600   54.2600   64.7300 hc      1447 PP       0.001800
  13021 HB1        50.7100   55.2100   66.4600 hc      1447 PP       0.063200
  13022 HB2        49.2700   56.0700   66.0000 hc      1447 PP       0.063200
  13023 HB3        49.1200   54.6900   67.2100 hc      1447 PP       0.063200
  13024 C2         50.5900   54.5600   64.0300 c3      1448 PP      -0.006100
  13025 C1         50.3700   54.0200   62.5800 c3      1448 PP       0.076800
  13026 CB         48.9700   54.3900   62.0000 c3      1448 PP      -0.265900
  13027 H21        50.5700   55.6500   63.9000 hc      1448 PP       0.001900
  13028 H22        51.6100   54.2900   64.3700 hc      1448 PP       0.001900
  13029 H1         50.4200   52.9200   62.6600 hc      1448 PP       0.001800
  13030 HB1        48.8000   54.0700   60.9600 hc      1448 PP       0.063200
  13031 HB2        48.1900   53.9300   62.6200 hc      1448 PP       0.063200
  13032 HB3        48.7600   55.4600   61.9600 hc      1448 PP       0.063200
  13033 C2         51.3900   54.4500   61.5300 c3      1449 PP      -0.006100
  13034 C1         52.8500   53.8900   61.7100 c3      1449 PP       0.076800
  13035 CB         52.8800   52.3000   61.3800 c3      1449 PP      -0.265900
  13036 H21        51.0800   54.2500   60.4900 hc      1449 PP       0.001900
  13037 H22        51.4200   55.5400   61.6000 hc      1449 PP       0.001900
  13038 H1         53.2200   53.9600   62.7400 hc      1449 PP       0.001800
  13039 HB1        52.8100   52.0700   60.3100 hc      1449 PP       0.063200
  13040 HB2        53.7800   51.9100   61.8800 hc      1449 PP       0.063200
  13041 HB3        52.0600   51.8500   61.9500 hc      1449 PP       0.063200
  13042 C2         53.9800   54.5900   60.8900 c3      1450 PP      -0.006100
  13043 C1         55.0400   55.4700   61.7400 c3      1450 PP       0.076800
  13044 CB         56.1400   55.9700   60.8600 c3      1450 PP      -0.265900
  13045 H21        54.4300   53.8600   60.2100 hc      1450 PP       0.001900
  13046 H22        53.4800   55.2900   60.2000 hc      1450 PP       0.001900
  13047 H1         55.4500   54.8500   62.5400 hc      1450 PP       0.001800
  13048 HB1        55.7200   56.7000   60.1600 hc      1450 PP       0.063200
  13049 HB2        56.9200   56.4300   61.4700 hc      1450 PP       0.063200
  13050 HB3        56.6100   55.1500   60.3100 hc      1450 PP       0.063200
  13051 C2         54.2600   56.6600   62.4400 c3      1451 PP      -0.006100
  13052 C1         55.1500   57.4700   63.4300 c3      1451 PP       0.076800
  13053 CB         55.8300   58.7600   62.7300 c3      1451 PP      -0.265900
  13054 H21        53.7400   57.2400   61.6800 hc      1451 PP       0.001900
  13055 H22        53.5000   56.1300   63.0200 hc      1451 PP       0.001900
  13056 H1         55.9300   56.9300   63.9800 hc      1451 PP       0.001800
  13057 HB1        55.1500   59.5700   62.4300 hc      1451 PP       0.063200
  13058 HB2        56.6300   59.1800   63.3500 hc      1451 PP       0.063200
  13059 HB3        56.3500   58.4700   61.8100 hc      1451 PP       0.063200
  13060 C2         54.3300   58.1800   64.5700 c3      1452 PP      -0.006100
  13061 C1         53.4000   57.2700   65.5000 c3      1452 PP       0.076800
  13062 CB         54.3000   56.2000   66.2700 c3      1452 PP      -0.265900
  13063 H21        55.0400   58.7100   65.2200 hc      1452 PP       0.001900
  13064 H22        53.7500   59.0200   64.1800 hc      1452 PP       0.001900
  13065 H1         52.6100   56.8100   64.8900 hc      1452 PP       0.001800
  13066 HB1        54.7400   55.4700   65.5800 hc      1452 PP       0.063200
  13067 HB2        55.1100   56.6900   66.8200 hc      1452 PP       0.063200
  13068 HB3        53.6200   55.7600   67.0100 hc      1452 PP       0.063200
  13069 C2         52.5800   58.1200   66.5200 c3      1453 PP      -0.006100
  13070 C1         51.7800   59.3800   65.8800 c3      1453 PP       0.076800
  13071 CB         50.2100   59.3400   66.1700 c3      1453 PP      -0.265900
  13072 H21        51.8300   57.4800   67.0000 hc      1453 PP       0.001900
  13073 H22        53.3300   58.5200   67.2100 hc      1453 PP       0.001900
  13074 H1         51.7500   59.3000   64.7800 hc      1453 PP       0.001800
  13075 HB1        49.9700   59.2700   67.2400 hc      1453 PP       0.063200
  13076 HB2        49.6800   60.1700   65.6700 hc      1453 PP       0.063200
  13077 HB3        49.7900   58.4400   65.7000 hc      1453 PP       0.063200
  13078 C2         52.4000   60.7100   66.3100 c3      1454 PP      -0.006100
  13079 C1         51.9200   61.9900   65.5200 c3      1454 PP       0.076800
  13080 CB         52.3000   63.2100   66.4700 c3      1454 PP      -0.265900
  13081 H21        52.1900   60.8000   67.3800 hc      1454 PP       0.001900
  13082 H22        53.4900   60.7200   66.3500 hc      1454 PP       0.001900
  13083 H1         50.8400   62.0100   65.3600 hc      1454 PP       0.001800
  13084 HB1        53.3400   63.1100   66.7900 hc      1454 PP       0.063200
  13085 HB2        52.1900   64.1500   65.9100 hc      1454 PP       0.063200
  13086 HB3        51.6300   63.3000   67.3300 hc      1454 PP       0.063200
  13087 C2         52.5100   62.0900   64.0900 c3      1455 PP      -0.006100
  13088 C1         52.1500   63.3400   63.1800 c3      1455 PP       0.076800
  13089 CB         53.2200   64.4400   63.0900 c3      1455 PP      -0.265900
  13090 H21        53.6000   62.0600   64.1900 hc      1455 PP       0.001900
  13091 H22        52.2000   61.2100   63.5100 hc      1455 PP       0.001900
  13092 H1         51.2100   63.7700   63.5600 hc      1455 PP       0.001800
  13093 HB1        52.6800   65.3300   62.7500 hc      1455 PP       0.063200
  13094 HB2        53.7400   64.6700   64.0200 hc      1455 PP       0.063200
  13095 HB3        54.0700   64.1900   62.4500 hc      1455 PP       0.063200
  13096 C2         51.8800   62.9000   61.7600 c3      1456 PP      -0.006100
  13097 C1         50.5200   62.0700   61.7300 c3      1456 PP       0.076800
  13098 CB         49.2900   63.0500   61.4000 c3      1456 PP      -0.265900
  13099 H21        51.7500   63.8000   61.1300 hc      1456 PP       0.001900
  13100 H22        52.7300   62.3000   61.4200 hc      1456 PP       0.001900
  13101 H1         50.3400   61.5300   62.6700 hc      1456 PP       0.001800
  13102 HB1        49.2100   63.8000   62.2000 hc      1456 PP       0.063200
  13103 HB2        49.3700   63.5600   60.4300 hc      1456 PP       0.063200
  13104 HB3        48.3100   62.5500   61.3700 hc      1456 PP       0.063200
  13105 C2         50.5600   60.9500   60.5900 c3      1457 PP      -0.006100
  13106 C1         51.4000   59.6400   61.0100 c3      1457 PP       0.076800
  13107 CB         50.6100   58.8000   62.1000 c3      1457 PP      -0.265900
  13108 H21        49.5200   60.6900   60.3600 hc      1457 PP       0.001900
  13109 H22        50.9000   61.4700   59.6900 hc      1457 PP       0.001900
  13110 H1         52.3600   59.8800   61.5000 hc      1457 PP       0.001800
  13111 HB1        50.2600   59.3800   62.9700 hc      1457 PP       0.063200
  13112 HB2        49.7300   58.4100   61.5700 hc      1457 PP       0.063200
  13113 HB3        51.2200   57.9500   62.4300 hc      1457 PP       0.063200
  13114 C2         51.6800   58.7100   59.8400 c3      1458 PP      -0.006100
  13115 C1         52.6000   59.1300   58.7500 c3      1458 PP       0.076800
  13116 CB         53.9900   59.6300   59.3500 c3      1458 PP      -0.265900
  13117 H21        51.9800   57.6900   60.1200 hc      1458 PP       0.001900
  13118 H22        50.7000   58.4800   59.3900 hc      1458 PP       0.001900
  13119 H1         52.1400   59.9600   58.1900 hc      1458 PP       0.001800
  13120 HB1        54.5400   58.7800   59.7700 hc      1458 PP       0.063200
  13121 HB2        54.6200   60.0200   58.5500 hc      1458 PP       0.063200
  13122 HB3        53.8600   60.3200   60.2000 hc      1458 PP       0.063200
  13123 C2         52.7700   58.1200   57.6400 c3      1459 PP      -0.006100
  13124 C1         51.4200   57.7600   56.8300 c3      1459 PP       0.076800
  13125 CB         51.8100   57.4100   55.4000 c3      1459 PP      -0.265900
  13126 H21        53.4700   58.5800   56.9300 hc      1459 PP       0.001900
  13127 H22        53.2900   57.2300   57.9900 hc      1459 PP       0.001900
  13128 H1         50.7800   58.6600   56.8100 hc      1459 PP       0.001800
  13129 HB1        51.5000   58.2200   54.7300 hc      1459 PP       0.063200
  13130 HB2        52.8700   57.1400   55.3000 hc      1459 PP       0.063200
  13131 HB3        51.3600   56.5100   54.9600 hc      1459 PP       0.063200
  13132 C2         50.6300   56.5400   57.4800 c3      1460 PP      -0.006100
  13133 C1         49.0400   56.5200   57.2500 c3      1460 PP       0.076800
  13134 CB         48.6100   56.7300   55.7000 c3      1460 PP      -0.265900
  13135 H21        51.0600   55.6600   56.9900 hc      1460 PP       0.001900
  13136 H22        50.7900   56.5000   58.5600 hc      1460 PP       0.001900
  13137 H1         48.5700   57.3000   57.8600 hc      1460 PP       0.001800
  13138 HB1        48.8900   57.7400   55.3700 hc      1460 PP       0.063200
  13139 HB2        49.1300   56.0200   55.0500 hc      1460 PP       0.063200
  13140 HB3        47.5200   56.6600   55.5900 hc      1460 PP       0.063200
  13141 C2         48.5800   55.0900   57.7600 c3      1461 PP      -0.006100
  13142 C1         46.9800   54.8500   57.8400 c3      1461 PP       0.076800
  13143 CB         46.8300   53.3600   58.0300 c3      1461 PP      -0.265900
  13144 H21        49.0500   54.3800   57.0700 hc      1461 PP       0.001900
  13145 H22        49.0700   54.9300   58.7300 hc      1461 PP       0.001900
  13146 H1         46.5600   55.0800   56.8500 hc      1461 PP       0.001800
  13147 HB1        47.3100   52.9400   57.1400 hc      1461 PP       0.063200
  13148 HB2        47.4700   53.1100   58.8800 hc      1461 PP       0.063200
  13149 HB3        45.7800   53.0600   58.1300 hc      1461 PP       0.063200
  13150 C2         46.2700   55.5900   58.9700 c3      1462 PP      -0.006100
  13151 C1         45.6300   56.9400   58.5600 c3      1462 PP       0.076800
  13152 CB         44.1800   56.8400   58.1800 c3      1462 PP      -0.265900
  13153 H21        45.5900   55.0400   59.6500 hc      1462 PP       0.001900
  13154 H22        47.1400   55.7600   59.6200 hc      1462 PP       0.001900
  13155 H1         46.1000   57.2700   57.6200 hc      1462 PP       0.001800
  13156 HB1        43.5300   56.7100   59.0600 hc      1462 PP       0.063200
  13157 HB2        43.8900   57.7500   57.6400 hc      1462 PP       0.063200
  13158 HB3        43.9700   56.0300   57.4800 hc      1462 PP       0.063200
  13159 C2         45.8700   58.1600   59.4900 c3      1463 PP      -0.006100
  13160 C1         45.9400   57.9900   61.0800 c3      1463 PP       0.076800
  13161 CB         46.2800   59.4000   61.7900 c3      1463 PP      -0.265900
  13162 H21        46.8000   58.6800   59.2600 hc      1463 PP       0.001900
  13163 H22        45.0900   58.9100   59.2900 hc      1463 PP       0.001900
  13164 H1         46.7700   57.3100   61.3100 hc      1463 PP       0.001800
  13165 HB1        46.5800   59.1800   62.8200 hc      1463 PP       0.063200
  13166 HB2        47.1300   59.8900   61.2900 hc      1463 PP       0.063200
  13167 HB3        45.3900   60.0400   61.7900 hc      1463 PP       0.063200
  13168 C2         44.6500   57.3200   61.6600 c3      1464 PP      -0.006100
  13169 C1         44.6300   56.9600   63.2500 c3      1464 PP       0.076800
  13170 CB         45.9700   56.3200   63.7200 c3      1464 PP      -0.265900
  13171 H21        43.8400   58.0000   61.3900 hc      1464 PP       0.001900
  13172 H22        44.4700   56.3800   61.1300 hc      1464 PP       0.001900
  13173 H1         43.8000   56.2500   63.3000 hc      1464 PP       0.001800
  13174 HB1        46.0700   55.3600   63.1900 hc      1464 PP       0.063200
  13175 HB2        46.7900   57.0000   63.4800 hc      1464 PP       0.063200
  13176 HB3        45.9300   56.1200   64.8000 hc      1464 PP       0.063200
  13177 C2         44.1600   58.2400   64.0100 c3      1465 PP      -0.006100
  13178 C1         43.3600   57.9700   65.3100 c3      1465 PP       0.076800
  13179 CB         44.3100   57.9100   66.5100 c3      1465 PP      -0.265900
  13180 H21        45.1000   58.6900   64.3600 hc      1465 PP       0.001900
  13181 H22        43.6900   58.9700   63.3300 hc      1465 PP       0.001900
  13182 H1         42.9200   56.9700   65.1800 hc      1465 PP       0.001800
  13183 HB1        43.7000   57.8000   67.4200 hc      1465 PP       0.063200
  13184 HB2        44.9400   57.0100   66.4600 hc      1465 PP       0.063200
  13185 HB3        44.9300   58.8100   66.5900 hc      1465 PP       0.063200
  13186 C2         42.2200   58.9900   65.4700 c3      1466 PP      -0.006100
  13187 C1         41.0500   58.5200   66.4700 c3      1466 PP       0.076800
  13188 CB         40.1500   59.7600   66.8800 c3      1466 PP      -0.265900
  13189 H21        42.6300   59.9400   65.8300 hc      1466 PP       0.001900
  13190 H22        41.7600   59.1600   64.4900 hc      1466 PP       0.001900
  13191 H1         41.6600   58.2600   67.3400 hc      1466 PP       0.001800
  13192 HB1        40.7500   60.4400   67.5000 hc      1466 PP       0.063200
  13193 HB2        39.9000   60.2600   65.9400 hc      1466 PP       0.063200
  13194 HB3        39.2500   59.4400   67.4300 hc      1466 PP       0.063200
  13195 C2         40.1500   57.4500   65.7700 c3      1467 PP      -0.006100
  13196 C1         39.5700   56.2400   66.7100 c3      1467 PP       0.076800
  13197 CB         38.0500   56.0700   66.3600 c3      1467 PP      -0.265900
  13198 H21        39.2700   57.9100   65.3100 hc      1467 PP       0.001900
  13199 H22        40.6500   56.9700   64.9200 hc      1467 PP       0.001900
  13200 H1         39.5100   56.7200   67.6900 hc      1467 PP       0.001800
  13201 HB1        37.5100   57.0200   66.4200 hc      1467 PP       0.063200
  13202 HB2        37.9000   55.6700   65.3500 hc      1467 PP       0.063200
  13203 HB3        37.5700   55.4200   67.1000 hc      1467 PP       0.063200
  13204 C2         40.5500   54.9500   66.8700 c3      1468 PP      -0.006100
  13205 C1         40.6300   53.8900   65.7600 c3      1468 PP       0.076800
  13206 CB         40.9200   54.3300   64.3000 c3      1468 PP      -0.265900
  13207 H21        41.5600   55.3700   67.0000 hc      1468 PP       0.001900
  13208 H22        40.2700   54.4400   67.8000 hc      1468 PP       0.001900
  13209 H1         39.5700   53.5800   65.7700 hc      1468 PP       0.001800
  13210 HB1        40.1900   55.1200   64.0800 hc      1468 PP       0.063200
  13211 HB2        41.9600   54.6800   64.2000 hc      1468 PP       0.063200
  13212 HB3        40.7600   53.5200   63.5800 hc      1468 PP       0.063200
  13213 C2         41.3400   52.5400   66.1100 c3      1469 PP      -0.006100
  13214 C1         42.7800   52.6100   66.6000 c3      1469 PP       0.076800
  13215 CB         43.1900   51.4100   67.4500 c3      1469 PP      -0.265900
  13216 H21        40.8000   52.2100   67.0100 hc      1469 PP       0.001900
  13217 H22        41.2800   51.7400   65.3500 hc      1469 PP       0.001900
  13218 H1         42.8300   53.4500   67.3100 hc      1469 PP       0.001800
  13219 HB1        44.2600   51.4800   67.7100 hc      1469 PP       0.063200
  13220 HB2        42.6300   51.2700   68.3800 hc      1469 PP       0.063200
  13221 HB3        43.0000   50.5100   66.8500 hc      1469 PP       0.063200
  13222 C2         43.7900   52.9700   65.5600 c3      1470 PP      -0.006100
  13223 C1         43.7600   52.1800   64.2600 c3      1470 PP       0.076800
  13224 CB         44.5100   52.7600   63.0900 c3      1470 PP      -0.265900
  13225 H21        44.7800   52.7900   66.0100 hc      1470 PP       0.001900
  13226 H22        43.7600   54.0200   65.2500 hc      1470 PP       0.001900
  13227 H1         43.8900   51.0900   64.2900 hc      1470 PP       0.001800
  13228 HB1        45.5900   52.8900   63.2400 hc      1470 PP       0.063200
  13229 HB2        44.3000   52.2200   62.1600 hc      1470 PP       0.063200
  13230 HB3        44.0800   53.7700   63.0500 hc      1470 PP       0.063200
  13231 C2          1.0300   30.1400   62.6400 c3      1471 PP      -0.006100
  13232 C1          0.8700   28.8700   63.5400 c3      1471 PP       0.076800
  13233 CB          0.1900   27.8600   62.6500 c3      1471 PP      -0.265900
  13234 H21         1.3100   29.9100   61.6100 hc      1471 PP       0.001900
  13235 H22         0.0900   30.6900   62.5500 hc      1471 PP       0.001900
  13236 H1          0.2700   29.0300   64.4400 hc      1471 PP       0.001800
  13237 HB1         0.7500   27.7100   61.7200 hc      1471 PP       0.063200
  13238 HB2         0.1500   26.9200   63.2300 hc      1471 PP       0.063200
  13239 HB3        -0.8600   28.1400   62.5000 hc      1471 PP       0.063200
  13240 C2          2.2100   28.3200   64.0400 c3      1472 PP      -0.006100
  13241 C1          2.9400   29.2500   65.0700 c3      1472 PP       0.076800
  13242 CB          2.1200   29.3300   66.3400 c3      1472 PP      -0.265900
  13243 H21         2.0000   27.3700   64.5600 hc      1472 PP       0.001900
  13244 H22         2.9100   28.1500   63.2100 hc      1472 PP       0.001900
  13245 H1          2.8500   30.2700   64.6600 hc      1472 PP       0.001800
  13246 HB1         2.0000   28.3900   66.9000 hc      1472 PP       0.063200
  13247 HB2         2.6000   29.9800   67.0800 hc      1472 PP       0.063200
  13248 HB3         1.1300   29.8100   66.2500 hc      1472 PP       0.063200
  13249 C2          4.4500   28.9600   65.2700 c3      1473 PP      -0.006100
  13250 C1          5.3500   28.9300   63.9900 c3      1473 PP       0.076800
  13251 CB          4.9900   30.0100   62.9300 c3      1473 PP      -0.265900
  13252 H21         4.8100   29.7800   65.8900 hc      1473 PP       0.001900
  13253 H22         4.5200   28.0300   65.8500 hc      1473 PP       0.001900
  13254 H1          5.1200   27.9500   63.5600 hc      1473 PP       0.001800
  13255 HB1         5.7400   30.0100   62.1300 hc      1473 PP       0.063200
  13256 HB2         4.0000   29.8600   62.4900 hc      1473 PP       0.063200
  13257 HB3         4.9700   31.0200   63.3700 hc      1473 PP       0.063200
  13258 C2          6.8300   29.0800   64.4300 c3      1474 PP      -0.006100
  13259 C1          7.8700   28.1000   63.8700 c3      1474 PP       0.076800
  13260 CB          7.9500   28.1400   62.3200 c3      1474 PP      -0.265900
  13261 H21         7.1600   30.1000   64.1800 hc      1474 PP       0.001900
  13262 H22         6.9000   28.9200   65.5100 hc      1474 PP       0.001900
  13263 H1          7.4700   27.1100   64.1400 hc      1474 PP       0.001800
  13264 HB1         8.0800   29.1700   61.9600 hc      1474 PP       0.063200
  13265 HB2         8.8000   27.5800   61.9100 hc      1474 PP       0.063200
  13266 HB3         7.1300   27.6300   61.7900 hc      1474 PP       0.063200
  13267 C2          9.2800   28.4900   64.4600 c3      1475 PP      -0.006100
  13268 C1          9.5300   28.1200   65.9400 c3      1475 PP       0.076800
  13269 CB          9.5600   26.5700   66.2500 c3      1475 PP      -0.265900
  13270 H21        10.0500   28.2000   63.7400 hc      1475 PP       0.001900
  13271 H22         9.2500   29.5900   64.4700 hc      1475 PP       0.001900
  13272 H1          8.8100   28.6300   66.5900 hc      1475 PP       0.001800
  13273 HB1         8.6100   26.0700   66.0700 hc      1475 PP       0.063200
  13274 HB2        10.3400   26.0700   65.6600 hc      1475 PP       0.063200
  13275 HB3         9.8700   26.5000   67.3000 hc      1475 PP       0.063200
  13276 C2         10.8900   28.9000   66.3000 c3      1476 PP      -0.006100
  13277 C1         10.9700   30.4600   66.1000 c3      1476 PP       0.076800
  13278 CB          9.6800   31.1900   66.6800 c3      1476 PP      -0.265900
  13279 H21        11.0900   28.6100   67.3400 hc      1476 PP       0.001900
  13280 H22        11.7100   28.4700   65.7200 hc      1476 PP       0.001900
  13281 H1         11.0500   30.8400   65.0700 hc      1476 PP       0.001800
  13282 HB1         8.8000   31.0800   66.0300 hc      1476 PP       0.063200
  13283 HB2         9.5500   30.8500   67.7200 hc      1476 PP       0.063200
  13284 HB3         9.7700   32.2800   66.6700 hc      1476 PP       0.063200
  13285 C2         12.2400   31.0600   66.6700 c3      1477 PP      -0.006100
  13286 C1         13.5800   30.7900   65.8700 c3      1477 PP       0.076800
  13287 CB         13.6400   31.4300   64.5100 c3      1477 PP      -0.265900
  13288 H21        12.1200   32.1400   66.8100 hc      1477 PP       0.001900
  13289 H22        12.3200   30.6800   67.6900 hc      1477 PP       0.001900
  13290 H1         13.4800   29.7000   65.8100 hc      1477 PP       0.001800
  13291 HB1        13.9200   32.4900   64.4800 hc      1477 PP       0.063200
  13292 HB2        14.4200   30.8900   63.9500 hc      1477 PP       0.063200
  13293 HB3        12.7300   31.1700   63.9600 hc      1477 PP       0.063200
  13294 C2         14.8700   31.1500   66.6500 c3      1478 PP      -0.006100
  13295 C1         16.2600   30.5400   66.0300 c3      1478 PP       0.076800
  13296 CB         17.4000   31.4600   66.6600 c3      1478 PP      -0.265900
  13297 H21        14.9100   32.2300   66.8500 hc      1478 PP       0.001900
  13298 H22        14.5700   30.6200   67.5600 hc      1478 PP       0.001900
  13299 H1         16.3000   30.8600   64.9800 hc      1478 PP       0.001800
  13300 HB1        17.4400   32.5200   66.4100 hc      1478 PP       0.063200
  13301 HB2        17.4500   31.3900   67.7500 hc      1478 PP       0.063200
  13302 HB3        18.3200   30.9500   66.3500 hc      1478 PP       0.063200
  13303 C2         16.3700   29.0500   66.3900 c3      1479 PP      -0.006100
  13304 C1         17.2000   28.1400   65.4600 c3      1479 PP       0.076800
  13305 CB         18.6200   28.6900   65.0800 c3      1479 PP      -0.265900
  13306 H21        16.7200   28.9300   67.4200 hc      1479 PP       0.001900
  13307 H22        15.3400   28.6500   66.3600 hc      1479 PP       0.001900
  13308 H1         16.6100   28.0700   64.5300 hc      1479 PP       0.001800
  13309 HB1        19.2900   28.8500   65.9300 hc      1479 PP       0.063200
  13310 HB2        19.0800   28.0700   64.3000 hc      1479 PP       0.063200
  13311 HB3        18.4900   29.6700   64.6100 hc      1479 PP       0.063200
  13312 C2         17.3700   26.6800   66.1400 c3      1480 PP      -0.006100
  13313 C1         18.0000   25.5600   65.3200 c3      1480 PP       0.076800
  13314 CB         17.8400   24.2600   66.0900 c3      1480 PP      -0.265900
  13315 H21        17.9700   26.7900   67.0500 hc      1480 PP       0.001900
  13316 H22        16.4200   26.3200   66.5500 hc      1480 PP       0.001900
  13317 H1         19.0600   25.8200   65.2000 hc      1480 PP       0.001800
  13318 HB1        16.8000   23.9200   66.0800 hc      1480 PP       0.063200
  13319 HB2        18.4800   23.4700   65.6700 hc      1480 PP       0.063200
  13320 HB3        18.2100   24.5100   67.0900 hc      1480 PP       0.063200
  13321 C2         17.4100   25.4900   63.8800 c3      1481 PP      -0.006100
  13322 C1         17.9700   24.4900   62.9000 c3      1481 PP       0.076800
  13323 CB         16.8100   23.8100   62.1700 c3      1481 PP      -0.265900
  13324 H21        16.3200   25.5000   63.9700 hc      1481 PP       0.001900
  13325 H22        17.4800   26.4500   63.3500 hc      1481 PP       0.001900
  13326 H1         18.4000   23.6800   63.5100 hc      1481 PP       0.001800
  13327 HB1        15.9900   23.4600   62.8100 hc      1481 PP       0.063200
  13328 HB2        16.4000   24.4700   61.4000 hc      1481 PP       0.063200
  13329 HB3        17.1100   22.8700   61.7100 hc      1481 PP       0.063200
  13330 C2         18.9800   24.9900   61.8900 c3      1482 PP      -0.006100
  13331 C1         20.2400   25.7800   62.4100 c3      1482 PP       0.076800
  13332 CB         21.2700   24.8000   63.0100 c3      1482 PP      -0.265900
  13333 H21        19.3200   24.1700   61.2400 hc      1482 PP       0.001900
  13334 H22        18.4300   25.6500   61.2200 hc      1482 PP       0.001900
  13335 H1         19.9200   26.4700   63.2000 hc      1482 PP       0.001800
  13336 HB1        21.8800   24.3600   62.2200 hc      1482 PP       0.063200
  13337 HB2        21.8500   25.2500   63.8200 hc      1482 PP       0.063200
  13338 HB3        20.7000   24.0200   63.5400 hc      1482 PP       0.063200
  13339 C2         20.8200   26.7100   61.3800 c3      1483 PP      -0.006100
  13340 C1         21.9800   27.5700   61.9300 c3      1483 PP       0.076800
  13341 CB         23.3100   27.2200   61.2200 c3      1483 PP      -0.265900
  13342 H21        21.1900   26.2000   60.4800 hc      1483 PP       0.001900
  13343 H22        19.9300   27.2800   61.1100 hc      1483 PP       0.001900
  13344 H1         22.1200   27.3000   62.9900 hc      1483 PP       0.001800
  13345 HB1        23.5600   26.1700   61.3600 hc      1483 PP       0.063200
  13346 HB2        23.1300   27.4300   60.1600 hc      1483 PP       0.063200
  13347 HB3        24.1100   27.8500   61.6400 hc      1483 PP       0.063200
  13348 C2         21.7000   29.1300   62.0500 c3      1484 PP      -0.006100
  13349 C1         20.9400   29.9100   60.8700 c3      1484 PP       0.076800
  13350 CB         19.4100   29.9400   61.0500 c3      1484 PP      -0.265900
  13351 H21        21.2100   29.3900   62.9900 hc      1484 PP       0.001900
  13352 H22        22.6800   29.6100   62.1800 hc      1484 PP       0.001900
  13353 H1         21.0200   29.3600   59.9200 hc      1484 PP       0.001800
  13354 HB1        18.9800   30.9100   60.7800 hc      1484 PP       0.063200
  13355 HB2        19.0500   29.2100   60.3100 hc      1484 PP       0.063200
  13356 HB3        19.0000   29.8000   62.0600 hc      1484 PP       0.063200
  13357 C2         21.5000   31.3300   60.6600 c3      1485 PP      -0.006100
  13358 C1         22.9200   31.3200   59.9800 c3      1485 PP       0.076800
  13359 CB         22.9800   30.4700   58.6900 c3      1485 PP      -0.265900
  13360 H21        20.8600   31.9200   59.9900 hc      1485 PP       0.001900
  13361 H22        21.4700   31.7600   61.6700 hc      1485 PP       0.001900
  13362 H1         23.6200   30.7800   60.6300 hc      1485 PP       0.001800
  13363 HB1        23.0000   29.3900   58.8700 hc      1485 PP       0.063200
  13364 HB2        22.1100   30.6200   58.0400 hc      1485 PP       0.063200
  13365 HB3        23.9200   30.7200   58.1700 hc      1485 PP       0.063200
  13366 C2         23.3800   32.7900   59.7300 c3      1486 PP      -0.006100
  13367 C1         23.8900   33.4400   61.0300 c3      1486 PP       0.076800
  13368 CB         25.2600   32.8900   61.4000 c3      1486 PP      -0.265900
  13369 H21        24.0300   32.9700   58.8700 hc      1486 PP       0.001900
  13370 H22        22.5100   33.4300   59.5200 hc      1486 PP       0.001900
  13371 H1         23.1900   33.2400   61.8500 hc      1486 PP       0.001800
  13372 HB1        25.7900   33.3600   62.2400 hc      1486 PP       0.063200
  13373 HB2        25.1600   31.8100   61.5700 hc      1486 PP       0.063200
  13374 HB3        25.9700   33.0200   60.5800 hc      1486 PP       0.063200
  13375 C2         23.9200   35.0000   60.8600 c3      1487 PP      -0.006100
  13376 C1         22.5600   35.7400   60.7500 c3      1487 PP       0.076800
  13377 CB         21.4400   35.2500   61.7500 c3      1487 PP      -0.265900
  13378 H21        24.3500   35.4400   61.7600 hc      1487 PP       0.001900
  13379 H22        24.5600   35.2500   60.0100 hc      1487 PP       0.001900
  13380 H1         22.1200   35.4800   59.7800 hc      1487 PP       0.001800
  13381 HB1        20.5400   35.8400   61.5700 hc      1487 PP       0.063200
  13382 HB2        21.2900   34.1800   61.5400 hc      1487 PP       0.063200
  13383 HB3        21.7200   35.3800   62.8000 hc      1487 PP       0.063200
  13384 C2         22.6800   37.2100   60.8000 c3      1488 PP      -0.006100
  13385 C1         23.5000   37.9500   59.7000 c3      1488 PP       0.076800
  13386 CB         22.7400   37.9600   58.4000 c3      1488 PP      -0.265900
  13387 H21        21.6900   37.6600   60.9100 hc      1488 PP       0.001900
  13388 H22        23.1200   37.5600   61.7500 hc      1488 PP       0.001900
  13389 H1         24.4100   37.3800   59.4800 hc      1488 PP       0.001800
  13390 HB1        23.4400   38.3200   57.6400 hc      1488 PP       0.063200
  13391 HB2        22.4100   36.9700   58.0800 hc      1488 PP       0.063200
  13392 HB3        21.8800   38.6300   58.5400 hc      1488 PP       0.063200
  13393 C2         23.8900   39.4400   60.0500 c3      1489 PP      -0.006100
  13394 C1         25.1400   39.6900   61.0300 c3      1489 PP       0.076800
  13395 CB         24.9600   39.0900   62.5000 c3      1489 PP      -0.265900
  13396 H21        24.1200   39.9200   59.0900 hc      1489 PP       0.001900
  13397 H22        23.0100   40.0300   60.3100 hc      1489 PP       0.001900
  13398 H1         25.1800   40.7700   61.1900 hc      1489 PP       0.001800
  13399 HB1        23.8800   39.1000   62.6800 hc      1489 PP       0.063200
  13400 HB2        25.2400   38.0200   62.4800 hc      1489 PP       0.063200
  13401 HB3        25.3500   39.6800   63.3400 hc      1489 PP       0.063200
  13402 C2         26.5200   39.1800   60.5400 c3      1490 PP      -0.006100
  13403 C1         27.0600   39.8000   59.2600 c3      1490 PP       0.076800
  13404 CB         28.0600   41.0000   59.5200 c3      1490 PP      -0.265900
  13405 H21        27.3100   39.2900   61.2900 hc      1490 PP       0.001900
  13406 H22        26.5900   38.1100   60.2800 hc      1490 PP       0.001900
  13407 H1         26.2700   40.3000   58.6900 hc      1490 PP       0.001800
  13408 HB1        27.7000   41.5600   60.3900 hc      1490 PP       0.063200
  13409 HB2        29.0300   40.6400   59.8900 hc      1490 PP       0.063200
  13410 HB3        28.2300   41.6200   58.6300 hc      1490 PP       0.063200
  13411 C2         27.8400   38.8300   58.3800 c3      1491 PP      -0.006100
  13412 C1         26.9300   37.8100   57.6200 c3      1491 PP       0.076800
  13413 CB         26.1100   38.3500   56.4700 c3      1491 PP      -0.265900
  13414 H21        28.3400   39.4200   57.5900 hc      1491 PP       0.001900
  13415 H22        28.7300   38.4400   58.8900 hc      1491 PP       0.001900
  13416 H1         26.2400   37.3600   58.3500 hc      1491 PP       0.001800
  13417 HB1        25.6100   39.2600   56.8000 hc      1491 PP       0.063200
  13418 HB2        26.8400   38.5600   55.6800 hc      1491 PP       0.063200
  13419 HB3        25.2600   37.7300   56.1800 hc      1491 PP       0.063200
  13420 C2         27.8500   36.6500   57.1200 c3      1492 PP      -0.006100
  13421 C1         28.6700   35.7100   58.0600 c3      1492 PP       0.076800
  13422 CB         27.7300   35.1900   59.2400 c3      1492 PP      -0.265900
  13423 H21        27.1700   35.9800   56.5900 hc      1492 PP       0.001900
  13424 H22        28.5500   37.0600   56.3900 hc      1492 PP       0.001900
  13425 H1         29.5200   36.2400   58.5100 hc      1492 PP       0.001800
  13426 HB1        28.4100   34.5500   59.8100 hc      1492 PP       0.063200
  13427 HB2        27.4400   36.1100   59.7700 hc      1492 PP       0.063200
  13428 HB3        26.9400   34.6600   58.6900 hc      1492 PP       0.063200
  13429 C2         29.2400   34.4600   57.3700 c3      1493 PP      -0.006100
  13430 C1         30.1900   34.5200   56.1200 c3      1493 PP       0.076800
  13431 CB         29.4800   34.7400   54.7800 c3      1493 PP      -0.265900
  13432 H21        29.8500   33.9300   58.1200 hc      1493 PP       0.001900
  13433 H22        28.3900   33.8100   57.1400 hc      1493 PP       0.001900
  13434 H1         30.5500   33.4800   56.1300 hc      1493 PP       0.001800
  13435 HB1        28.8900   35.6600   54.7500 hc      1493 PP       0.063200
  13436 HB2        30.2100   34.7400   53.9700 hc      1493 PP       0.063200
  13437 HB3        28.7900   33.9000   54.6500 hc      1493 PP       0.063200
  13438 C2         31.4500   35.4800   56.3500 c3      1494 PP      -0.006100
  13439 C1         32.5000   35.3500   55.1600 c3      1494 PP       0.076800
  13440 CB         33.6500   36.3000   55.4000 c3      1494 PP      -0.265900
  13441 H21        31.0600   36.5000   56.4900 hc      1494 PP       0.001900
  13442 H22        32.0900   35.2400   57.2000 hc      1494 PP       0.001900
  13443 H1         32.0600   35.7200   54.2300 hc      1494 PP       0.001800
  13444 HB1        33.3300   37.2300   55.8800 hc      1494 PP       0.063200
  13445 HB2        34.3900   35.8700   56.0800 hc      1494 PP       0.063200
  13446 HB3        34.1600   36.5000   54.4500 hc      1494 PP       0.063200
  13447 C2         33.0100   33.8300   54.8100 c3      1495 PP      -0.006100
  13448 C1         33.8600   33.6100   53.5900 c3      1495 PP       0.076800
  13449 CB         34.6000   32.1700   53.7000 c3      1495 PP      -0.265900
  13450 H21        33.5300   33.4700   55.7000 hc      1495 PP       0.001900
  13451 H22        32.1300   33.1700   54.8100 hc      1495 PP       0.001900
  13452 H1         34.6700   34.3400   53.5300 hc      1495 PP       0.001800
  13453 HB1        35.2700   32.0700   52.8400 hc      1495 PP       0.063200
  13454 HB2        35.1700   32.0100   54.6200 hc      1495 PP       0.063200
  13455 HB3        33.8100   31.4100   53.7000 hc      1495 PP       0.063200
  13456 C2         32.9900   33.8100   52.2900 c3      1496 PP      -0.006100
  13457 C1         33.7700   33.7600   50.9300 c3      1496 PP       0.076800
  13458 CB         32.8400   33.3600   49.7200 c3      1496 PP      -0.265900
  13459 H21        32.3100   32.9500   52.2600 hc      1496 PP       0.001900
  13460 H22        32.3300   34.6700   52.4000 hc      1496 PP       0.001900
  13461 H1         34.4000   32.8700   51.0400 hc      1496 PP       0.001800
  13462 HB1        33.4600   33.3500   48.8200 hc      1496 PP       0.063200
  13463 HB2        32.2800   32.4400   49.9100 hc      1496 PP       0.063200
  13464 HB3        32.0100   34.0600   49.5600 hc      1496 PP       0.063200
  13465 C2         34.6600   34.9400   50.7000 c3      1497 PP      -0.006100
  13466 C1         36.1600   34.6000   50.7000 c3      1497 PP       0.076800
  13467 CB         36.6000   33.5200   49.6200 c3      1497 PP      -0.265900
  13468 H21        34.3800   35.5000   49.8000 hc      1497 PP       0.001900
  13469 H22        34.5200   35.6800   51.5000 hc      1497 PP       0.001900
  13470 H1         36.3900   34.1300   51.6700 hc      1497 PP       0.001800
  13471 HB1        37.6800   33.3200   49.6400 hc      1497 PP       0.063200
  13472 HB2        36.0500   32.5900   49.7800 hc      1497 PP       0.063200
  13473 HB3        36.3800   33.9100   48.6200 hc      1497 PP       0.063200
  13474 C2         37.0000   35.8900   50.4500 c3      1498 PP      -0.006100
  13475 C1         38.3300   36.0100   51.1900 c3      1498 PP       0.076800
  13476 CB         39.2300   37.1900   50.4900 c3      1498 PP      -0.265900
  13477 H21        37.1100   36.0600   49.3700 hc      1498 PP       0.001900
  13478 H22        36.3800   36.7600   50.7000 hc      1498 PP       0.001900
  13479 H1         38.9300   35.1000   51.0200 hc      1498 PP       0.001800
  13480 HB1        40.3000   37.0200   50.6600 hc      1498 PP       0.063200
  13481 HB2        39.0400   37.1900   49.4100 hc      1498 PP       0.063200
  13482 HB3        39.0500   38.2300   50.8100 hc      1498 PP       0.063200
  13483 C2         38.0900   36.3500   52.6700 c3      1499 PP      -0.006100
  13484 C1         39.1500   35.7600   53.6300 c3      1499 PP       0.076800
  13485 CB         40.4400   36.6300   53.7500 c3      1499 PP      -0.265900
  13486 H21        37.8800   37.4100   52.8600 hc      1499 PP       0.001900
  13487 H22        37.0900   35.9500   52.8600 hc      1499 PP       0.001900
  13488 H1         39.4300   34.7700   53.2400 hc      1499 PP       0.001800
  13489 HB1        41.1000   36.2900   52.9400 hc      1499 PP       0.063200
  13490 HB2        40.1700   37.6900   53.6600 hc      1499 PP       0.063200
  13491 HB3        41.1500   36.3300   54.5400 hc      1499 PP       0.063200
  13492 C2         38.5400   35.5000   55.0400 c3      1500 PP      -0.006100
  13493 C1         37.2800   34.5400   55.0300 c3      1500 PP       0.076800
  13494 CB         36.7000   34.3500   56.4100 c3      1500 PP      -0.265900
  13495 H21        38.2400   36.4800   55.4300 hc      1500 PP       0.001900
  13496 H22        39.3100   35.0900   55.7100 hc      1500 PP       0.001900
  13497 H1         37.5800   33.5200   54.7400 hc      1500 PP       0.001800
  13498 HB1        35.6200   34.2100   56.2300 hc      1500 PP       0.063200
  13499 HB2        37.0600   33.4200   56.8700 hc      1500 PP       0.063200
  13500 HB3        36.8000   35.2400   57.0300 hc      1500 PP       0.063200
  13501 C2         16.6600    1.9700   65.9800 c3      1501 PP      -0.006100
  13502 C1         15.4700    1.1300   65.3600 c3      1501 PP       0.076800
  13503 CB         14.5000    0.7200   66.4200 c3      1501 PP      -0.265900
  13504 H21        17.2700    2.2800   65.1300 hc      1501 PP       0.001900
  13505 H22        17.2400    1.2800   66.6000 hc      1501 PP       0.001900
  13506 H1         15.9500    0.2500   64.9100 hc      1501 PP       0.001800
  13507 HB1        15.0800    0.3100   67.2600 hc      1501 PP       0.063200
  13508 HB2        13.8900    1.5500   66.8200 hc      1501 PP       0.063200
  13509 HB3        13.8100   -0.1000   66.1900 hc      1501 PP       0.063200
  13510 C2         14.8600    1.8700   64.1300 c3      1502 PP      -0.006100
  13511 C1         13.5500    1.2200   63.5800 c3      1502 PP       0.076800
  13512 CB         12.7600    2.1500   62.6100 c3      1502 PP      -0.265900
  13513 H21        14.6800    2.8900   64.5100 hc      1502 PP       0.001900
  13514 H22        15.5800    1.9700   63.3100 hc      1502 PP       0.001900
  13515 H1         12.8900    0.9200   64.4000 hc      1502 PP       0.001800
  13516 HB1        13.3300    2.6500   61.8200 hc      1502 PP       0.063200
  13517 HB2        11.9000    1.6600   62.1500 hc      1502 PP       0.063200
  13518 HB3        12.3200    2.9500   63.2200 hc      1502 PP       0.063200
  13519 C2         13.9800   79.8800   62.8600 c3      1503 PP      -0.006100
  13520 C1         12.8000   79.1000   62.2600 c3      1503 PP       0.076800
  13521 CB         13.2600   77.9200   61.3700 c3      1503 PP      -0.265900
  13522 H21        14.5800   80.1300   61.9700 hc      1503 PP       0.001900
  13523 H22        14.5600   79.3200   63.6000 hc      1503 PP       0.001900
  13524 H1         12.2000   79.7500   61.6200 hc      1503 PP       0.001800
  13525 HB1        13.1300   78.3100   60.3500 hc      1503 PP       0.063200
  13526 HB2        14.2800   77.5900   61.6300 hc      1503 PP       0.063200
  13527 HB3        12.5700   77.0700   61.4300 hc      1503 PP       0.063200
  13528 C2         11.7400   78.6100   63.4000 c3      1504 PP      -0.006100
  13529 C1         10.4800   79.5600   63.5400 c3      1504 PP       0.076800
  13530 CB          9.5700   79.5500   62.2200 c3      1504 PP      -0.265900
  13531 H21        11.4000   77.5600   63.4100 hc      1504 PP       0.001900
  13532 H22        12.3200   78.5600   64.3300 hc      1504 PP       0.001900
  13533 H1         10.8200   80.5900   63.7000 hc      1504 PP       0.001800
  13534 HB1         9.4300   78.5000   61.9300 hc      1504 PP       0.063200
  13535 HB2         8.6300   80.0500   62.4800 hc      1504 PP       0.063200
  13536 HB3        10.0200   80.0700   61.3700 hc      1504 PP       0.063200
  13537 C2          9.7200   79.1100   64.8300 c3      1505 PP      -0.006100
  13538 C1          8.4400   79.8300   65.1400 c3      1505 PP       0.076800
  13539 CB          7.9500   79.3400   66.4600 c3      1505 PP      -0.265900
  13540 H21         9.4800   78.0400   64.8100 hc      1505 PP       0.001900
  13541 H22        10.3800   79.2600   65.6900 hc      1505 PP       0.001900
  13542 H1          7.7000   79.4700   64.4200 hc      1505 PP       0.001800
  13543 HB1         7.6600   78.2800   66.3900 hc      1505 PP       0.063200
  13544 HB2         8.7200   79.4200   67.2400 hc      1505 PP       0.063200
  13545 HB3         7.0100   79.8500   66.6900 hc      1505 PP       0.063200
  13546 C2          8.4400    1.3700   64.9600 c3      1506 PP      -0.006100
  13547 C1          8.7800    2.2300   66.2600 c3      1506 PP       0.076800
  13548 CB         10.2700    2.0300   66.7400 c3      1506 PP      -0.265900
  13549 H21         9.0500    1.8200   64.1600 hc      1506 PP       0.001900
  13550 H22         7.4100    1.5900   64.6700 hc      1506 PP       0.001900
  13551 H1          8.1300    1.8700   67.0700 hc      1506 PP       0.001800
  13552 HB1        10.9300    2.2700   65.8900 hc      1506 PP       0.063200
  13553 HB2        10.5800    2.7300   67.5200 hc      1506 PP       0.063200
  13554 HB3        10.5100    0.9900   67.0000 hc      1506 PP       0.063200
  13555 C2          8.6100    3.7400   66.0300 c3      1507 PP      -0.006100
  13556 C1          7.1700    4.2100   65.7400 c3      1507 PP       0.076800
  13557 CB          6.2100    3.5400   66.8100 c3      1507 PP      -0.265900
  13558 H21         8.9600    4.3300   66.8900 hc      1507 PP       0.001900
  13559 H22         9.2900    4.0400   65.2300 hc      1507 PP       0.001900
  13560 H1          6.8900    3.8600   64.7400 hc      1507 PP       0.001800
  13561 HB1         6.5400    3.6600   67.8500 hc      1507 PP       0.063200
  13562 HB2         5.2000    3.9600   66.7800 hc      1507 PP       0.063200
  13563 HB3         6.0700    2.4800   66.5400 hc      1507 PP       0.063200
  13564 C2          7.0900    5.8000   65.8400 c3      1508 PP      -0.006100
  13565 C1          5.9900    6.4900   65.0100 c3      1508 PP       0.076800
  13566 CB          5.7600    7.9300   65.6800 c3      1508 PP      -0.265900
  13567 H21         6.9600    6.0200   66.9100 hc      1508 PP       0.001900
  13568 H22         8.0800    6.1500   65.5100 hc      1508 PP       0.001900
  13569 H1          5.0700    5.9000   65.0500 hc      1508 PP       0.001800
  13570 HB1         5.6000    7.9200   66.7700 hc      1508 PP       0.063200
  13571 HB2         6.6200    8.5800   65.4600 hc      1508 PP       0.063200
  13572 HB3         4.9900    8.5000   65.1400 hc      1508 PP       0.063200
  13573 C2          6.4100    6.6400   63.5000 c3      1509 PP      -0.006100
  13574 C1          5.9300    5.5500   62.5300 c3      1509 PP       0.076800
  13575 CB          4.4600    5.8400   62.0600 c3      1509 PP      -0.265900
  13576 H21         6.1500    7.6000   63.0300 hc      1509 PP       0.001900
  13577 H22         7.5000    6.6700   63.4400 hc      1509 PP       0.001900
  13578 H1          5.9500    4.5400   62.9400 hc      1509 PP       0.001800
  13579 HB1         4.0400    4.9900   61.5100 hc      1509 PP       0.063200
  13580 HB2         3.8000    6.2000   62.8700 hc      1509 PP       0.063200
  13581 HB3         4.4500    6.6400   61.3100 hc      1509 PP       0.063200
  13582 C2          6.8200    5.4400   61.3600 c3      1510 PP      -0.006100
  13583 C1          8.1100    4.5400   61.7500 c3      1510 PP       0.076800
  13584 CB          7.7800    3.0300   61.6400 c3      1510 PP      -0.265900
  13585 H21         6.3900    4.9500   60.4800 hc      1510 PP       0.001900
  13586 H22         7.1700    6.4500   61.1000 hc      1510 PP       0.001900
  13587 H1          8.4600    4.8300   62.7500 hc      1510 PP       0.001800
  13588 HB1         6.9400    2.7500   62.2900 hc      1510 PP       0.063200
  13589 HB2         7.5000    2.7800   60.6100 hc      1510 PP       0.063200
  13590 HB3         8.7000    2.4800   61.8900 hc      1510 PP       0.063200
  13591 C2          9.3000    4.8800   60.8100 c3      1511 PP      -0.006100
  13592 C1         10.5900    5.5300   61.4900 c3      1511 PP       0.076800
  13593 CB         11.9300    5.2200   60.8200 c3      1511 PP      -0.265900
  13594 H21         9.4900    4.1000   60.0700 hc      1511 PP       0.001900
  13595 H22         8.9200    5.6800   60.1600 hc      1511 PP       0.001900
  13596 H1         10.7900    5.0000   62.4300 hc      1511 PP       0.001800
  13597 HB1        11.9700    5.8700   59.9400 hc      1511 PP       0.063200
  13598 HB2        12.8100    5.4500   61.4300 hc      1511 PP       0.063200
  13599 HB3        12.0100    4.1800   60.4500 hc      1511 PP       0.063200
  13600 C2         10.3900    7.0300   61.7400 c3      1512 PP      -0.006100
  13601 C1         11.2200    7.7000   62.9200 c3      1512 PP       0.076800
  13602 CB         11.5200    9.2300   62.7600 c3      1512 PP      -0.265900
  13603 H21        10.4600    7.6200   60.8200 hc      1512 PP       0.001900
  13604 H22         9.3400    7.1100   62.0500 hc      1512 PP       0.001900
  13605 H1         12.2000    7.2000   62.9800 hc      1512 PP       0.001800
  13606 HB1        12.1100    9.5500   63.6200 hc      1512 PP       0.063200
  13607 HB2        12.1800    9.4000   61.9000 hc      1512 PP       0.063200
  13608 HB3        10.6200    9.8500   62.7500 hc      1512 PP       0.063200
  13609 C2         10.5600    7.4700   64.3800 c3      1513 PP      -0.006100
  13610 C1         11.4800    7.4100   65.6000 c3      1513 PP       0.076800
  13611 CB         10.9200    8.0400   66.8500 c3      1513 PP      -0.265900
  13612 H21         9.7400    8.1800   64.5500 hc      1513 PP       0.001900
  13613 H22        10.0200    6.5200   64.4400 hc      1513 PP       0.001900
  13614 H1         12.4100    7.9400   65.3600 hc      1513 PP       0.001800
  13615 HB1        11.7700    8.1400   67.5400 hc      1513 PP       0.063200
  13616 HB2        10.5600    9.0600   66.6400 hc      1513 PP       0.063200
  13617 HB3        10.1800    7.3900   67.3300 hc      1513 PP       0.063200
  13618 C2         11.9100    5.9900   65.7800 c3      1514 PP      -0.006100
  13619 C1         13.3000    5.8300   66.4400 c3      1514 PP       0.076800
  13620 CB         13.4900    4.3300   66.7300 c3      1514 PP      -0.265900
  13621 H21        11.1800    5.5600   66.4800 hc      1514 PP       0.001900
  13622 H22        11.8200    5.3900   64.8700 hc      1514 PP       0.001900
  13623 H1         13.2400    6.4500   67.3400 hc      1514 PP       0.001800
  13624 HB1        12.7300    4.0000   67.4400 hc      1514 PP       0.063200
  13625 HB2        13.4100    3.8000   65.7800 hc      1514 PP       0.063200
  13626 HB3        14.4500    4.0100   67.1700 hc      1514 PP       0.063200
  13627 C2         14.4600    6.3600   65.5500 c3      1515 PP      -0.006100
  13628 C1         15.5800    7.0900   66.2900 c3      1515 PP       0.076800
  13629 CB         16.2600    6.0600   67.3200 c3      1515 PP      -0.265900
  13630 H21        14.8300    5.5000   64.9800 hc      1515 PP       0.001900
  13631 H22        14.1100    6.9900   64.7200 hc      1515 PP       0.001900
  13632 H1         15.1500    7.8800   66.9100 hc      1515 PP       0.001800
  13633 HB1        17.2400    6.4800   67.5700 hc      1515 PP       0.063200
  13634 HB2        15.6600    5.9500   68.2400 hc      1515 PP       0.063200
  13635 HB3        16.4600    5.0700   66.8900 hc      1515 PP       0.063200
  13636 C2         16.6500    7.7300   65.3000 c3      1516 PP      -0.006100
  13637 C1         16.4800    9.2400   65.0300 c3      1516 PP       0.076800
  13638 CB         15.0700    9.6700   64.5700 c3      1516 PP      -0.265900
  13639 H21        17.7300    7.5900   65.4600 hc      1516 PP       0.001900
  13640 H22        16.5300    7.2400   64.3200 hc      1516 PP       0.001900
  13641 H1         17.1000    9.5000   64.1600 hc      1516 PP       0.001800
  13642 HB1        14.6500    9.1400   63.7100 hc      1516 PP       0.063200
  13643 HB2        14.3000    9.7300   65.3500 hc      1516 PP       0.063200
  13644 HB3        15.2100   10.6800   64.1500 hc      1516 PP       0.063200
  13645 C2         17.0400   10.1000   66.2300 c3      1517 PP      -0.006100
  13646 C1         17.1800   11.6300   65.8800 c3      1517 PP       0.076800
  13647 CB         16.0200   12.3600   66.5300 c3      1517 PP      -0.265900
  13648 H21        16.4800   10.0000   67.1700 hc      1517 PP       0.001900
  13649 H22        18.0100    9.6300   66.4400 hc      1517 PP       0.001900
  13650 H1         16.9800   11.8400   64.8200 hc      1517 PP       0.001800
  13651 HB1        16.0000   13.4500   66.3800 hc      1517 PP       0.063200
  13652 HB2        15.0800   11.9900   66.1100 hc      1517 PP       0.063200
  13653 HB3        16.0000   12.1200   67.6000 hc      1517 PP       0.063200
  13654 C2         18.5700   12.1600   66.3700 c3      1518 PP      -0.006100
  13655 C1         19.7100   11.5300   65.5500 c3      1518 PP       0.076800
  13656 CB         19.8000   12.0600   64.1500 c3      1518 PP      -0.265900
  13657 H21        18.6700   13.2500   66.3300 hc      1518 PP       0.001900
  13658 H22        18.6500   11.8200   67.4100 hc      1518 PP       0.001900
  13659 H1         19.5400   10.4500   65.5000 hc      1518 PP       0.001800
  13660 HB1        20.2900   13.0400   64.1100 hc      1518 PP       0.063200
  13661 HB2        20.3700   11.3200   63.5800 hc      1518 PP       0.063200
  13662 HB3        18.8500   12.1900   63.6200 hc      1518 PP       0.063200
  13663 C2         21.0500   11.7700   66.3200 c3      1519 PP      -0.006100
  13664 C1         22.2900   11.2300   65.6500 c3      1519 PP       0.076800
  13665 CB         23.6100   11.4400   66.5400 c3      1519 PP      -0.265900
  13666 H21        21.2100   12.8100   66.6200 hc      1519 PP       0.001900
  13667 H22        20.9400   11.3600   67.3300 hc      1519 PP       0.001900
  13668 H1         22.5600   11.7700   64.7400 hc      1519 PP       0.001800
  13669 HB1        24.1200   12.3600   66.2400 hc      1519 PP       0.063200
  13670 HB2        23.3700   11.6000   67.5900 hc      1519 PP       0.063200
  13671 HB3        24.3800   10.6600   66.5100 hc      1519 PP       0.063200
  13672 C2         22.2800    9.7200   65.1600 c3      1520 PP      -0.006100
  13673 C1         22.1900    8.6200   66.2500 c3      1520 PP       0.076800
  13674 CB         20.7800    8.3900   66.9400 c3      1520 PP      -0.265900
  13675 H21        21.4800    9.5800   64.4200 hc      1520 PP       0.001900
  13676 H22        23.2000    9.5500   64.5900 hc      1520 PP       0.001900
  13677 H1         22.9100    8.9900   67.0000 hc      1520 PP       0.001800
  13678 HB1        20.7700    7.5500   67.6500 hc      1520 PP       0.063200
  13679 HB2        20.3400    9.3000   67.3700 hc      1520 PP       0.063200
  13680 HB3        20.0300    8.1400   66.1800 hc      1520 PP       0.063200
  13681 C2         22.8900    7.3300   65.8100 c3      1521 PP      -0.006100
  13682 C1         22.2800    6.6500   64.5900 c3      1521 PP       0.076800
  13683 CB         23.2400    6.7700   63.3500 c3      1521 PP      -0.265900
  13684 H21        23.9600    7.5700   65.6900 hc      1521 PP       0.001900
  13685 H22        22.9300    6.5700   66.6100 hc      1521 PP       0.001900
  13686 H1         21.3100    7.1100   64.3900 hc      1521 PP       0.001800
  13687 HB1        23.3700    7.8100   63.0200 hc      1521 PP       0.063200
  13688 HB2        24.2500    6.4300   63.6100 hc      1521 PP       0.063200
  13689 HB3        22.9700    6.1700   62.4800 hc      1521 PP       0.063200
  13690 C2         22.0700    5.2000   64.8600 c3      1522 PP      -0.006100
  13691 C1         20.9700    4.8700   65.9200 c3      1522 PP       0.076800
  13692 CB         19.5200    4.8500   65.2700 c3      1522 PP      -0.265900
  13693 H21        21.8400    4.7400   63.8900 hc      1522 PP       0.001900
  13694 H22        23.0300    4.8000   65.2000 hc      1522 PP       0.001900
  13695 H1         20.9700    5.6000   66.7300 hc      1522 PP       0.001800
  13696 HB1        19.1600    5.8600   65.0600 hc      1522 PP       0.063200
  13697 HB2        19.5600    4.2200   64.3700 hc      1522 PP       0.063200
  13698 HB3        18.8000    4.4000   65.9700 hc      1522 PP       0.063200
  13699 C2         21.1600    3.5200   66.7700 c3      1523 PP      -0.006100
  13700 C1         21.3200    2.1500   65.8900 c3      1523 PP       0.076800
  13701 CB         22.8100    1.8300   65.7600 c3      1523 PP      -0.265900
  13702 H21        22.0800    3.6600   67.3500 hc      1523 PP       0.001900
  13703 H22        20.3700    3.4000   67.5200 hc      1523 PP       0.001900
  13704 H1         20.9700    2.3700   64.8800 hc      1523 PP       0.001800
  13705 HB1        23.3300    2.5400   65.1100 hc      1523 PP       0.063200
  13706 HB2        23.3200    1.9700   66.7200 hc      1523 PP       0.063200
  13707 HB3        23.0600    0.8600   65.3100 hc      1523 PP       0.063200
  13708 C2         20.4900   80.9300   66.5100 c3      1524 PP      -0.006100
  13709 C1         20.4700   79.6500   65.6300 c3      1524 PP       0.076800
  13710 CB         20.1700   78.3800   66.3900 c3      1524 PP      -0.265900
  13711 H21        20.8600   80.6700   67.5100 hc      1524 PP       0.001900
  13712 H22        19.4500   81.2400   66.7000 hc      1524 PP       0.001900
  13713 H1         21.5000   79.5200   65.2700 hc      1524 PP       0.001800
  13714 HB1        21.0500   78.0800   66.9600 hc      1524 PP       0.063200
  13715 HB2        19.4300   78.4000   67.1900 hc      1524 PP       0.063200
  13716 HB3        19.8600   77.5400   65.7500 hc      1524 PP       0.063200
  13717 C2         19.4900   79.8100   64.4100 c3      1525 PP      -0.006100
  13718 C1         19.5200   78.7300   63.2500 c3      1525 PP       0.076800
  13719 CB         18.3600   78.8400   62.2100 c3      1525 PP      -0.265900
  13720 H21        18.4900   79.7900   64.8600 hc      1525 PP       0.001900
  13721 H22        19.5700   80.8000   63.9400 hc      1525 PP       0.001900
  13722 H1         19.4900   77.7400   63.7300 hc      1525 PP       0.001800
  13723 HB1        18.4400   79.7200   61.5600 hc      1525 PP       0.063200
  13724 HB2        18.3900   78.0100   61.4900 hc      1525 PP       0.063200
  13725 HB3        17.3800   78.7800   62.6900 hc      1525 PP       0.063200
  13726 C2         20.8600   78.7100   62.4300 c3      1526 PP      -0.006100
  13727 C1         21.4600   77.3000   61.9500 c3      1526 PP       0.076800
  13728 CB         22.6700   77.6400   60.9800 c3      1526 PP      -0.265900
  13729 H21        20.7500   79.3600   61.5500 hc      1526 PP       0.001900
  13730 H22        21.6200   79.3100   62.9400 hc      1526 PP       0.001900
  13731 H1         20.6600   76.7400   61.4300 hc      1526 PP       0.001800
  13732 HB1        22.5100   78.1300   60.0100 hc      1526 PP       0.063200
  13733 HB2        23.4100   78.1500   61.6100 hc      1526 PP       0.063200
  13734 HB3        23.1000   76.6600   60.7500 hc      1526 PP       0.063200
  13735 C2         21.9900   76.3700   63.1300 c3      1527 PP      -0.006100
  13736 C1         21.3700   74.9700   63.3300 c3      1527 PP       0.076800
  13737 CB         21.5800   74.1300   62.0600 c3      1527 PP      -0.265900
  13738 H21        23.0700   76.1900   63.1400 hc      1527 PP       0.001900
  13739 H22        21.8800   77.0100   64.0200 hc      1527 PP       0.001900
  13740 H1         20.2900   75.0300   63.5000 hc      1527 PP       0.001800
  13741 HB1        22.6400   73.8800   61.8800 hc      1527 PP       0.063200
  13742 HB2        21.0400   73.2000   62.2400 hc      1527 PP       0.063200
  13743 HB3        21.2100   74.5800   61.1300 hc      1527 PP       0.063200
  13744 C2         21.9200   74.3900   64.6400 c3      1528 PP      -0.006100
  13745 C1         21.2100   73.1900   65.3000 c3      1528 PP       0.076800
  13746 CB         21.7700   72.9700   66.7500 c3      1528 PP      -0.265900
  13747 H21        22.9700   74.0800   64.6100 hc      1528 PP       0.001900
  13748 H22        21.8600   75.2200   65.3500 hc      1528 PP       0.001900
  13749 H1         21.5400   72.2800   64.7900 hc      1528 PP       0.001800
  13750 HB1        21.4400   72.0100   67.1600 hc      1528 PP       0.063200
  13751 HB2        22.8700   72.9600   66.7600 hc      1528 PP       0.063200
  13752 HB3        21.5100   73.7900   67.4400 hc      1528 PP       0.063200
  13753 C2         19.6400   73.2200   65.2300 c3      1529 PP      -0.006100
  13754 C1         18.8900   72.2600   66.2300 c3      1529 PP       0.076800
  13755 CB         17.3800   72.7300   66.3800 c3      1529 PP      -0.265900
  13756 H21        19.3500   74.2600   65.4200 hc      1529 PP       0.001900
  13757 H22        19.2800   72.9600   64.2200 hc      1529 PP       0.001900
  13758 H1         19.3400   72.4300   67.2100 hc      1529 PP       0.001800
  13759 HB1        16.8700   72.0300   67.0500 hc      1529 PP       0.063200
  13760 HB2        17.2500   73.7600   66.7300 hc      1529 PP       0.063200
  13761 HB3        16.8800   72.6000   65.4100 hc      1529 PP       0.063200
  13762 C2         19.0100   70.7500   65.8600 c3      1530 PP      -0.006100
  13763 C1         18.6300   69.8000   66.9300 c3      1530 PP       0.076800
  13764 CB         19.0300   68.3800   66.5900 c3      1530 PP      -0.265900
  13765 H21        20.0400   70.5100   65.5900 hc      1530 PP       0.001900
  13766 H22        18.4000   70.5700   64.9700 hc      1530 PP       0.001900
  13767 H1         17.5400   69.8900   66.9600 hc      1530 PP       0.001800
  13768 HB1        19.0800   68.2600   65.5000 hc      1530 PP       0.063200
  13769 HB2        20.0300   68.0500   66.9100 hc      1530 PP       0.063200
  13770 HB3        18.2800   67.6600   66.9300 hc      1530 PP       0.063200
  13771 C2         70.7600   70.9800   57.8900 c3      1531 PP      -0.006100
  13772 C1         70.3700   70.2900   59.1700 c3      1531 PP       0.076800
  13773 CB         70.5900   71.2600   60.3600 c3      1531 PP      -0.265900
  13774 H21        70.4300   70.3400   57.0600 hc      1531 PP       0.001900
  13775 H22        71.8500   70.9900   58.0000 hc      1531 PP       0.001900
  13776 H1         71.0600   69.4500   59.3200 hc      1531 PP       0.001800
  13777 HB1        71.5900   71.7000   60.3300 hc      1531 PP       0.063200
  13778 HB2        69.9500   72.1500   60.3700 hc      1531 PP       0.063200
  13779 HB3        70.6400   70.6400   61.2700 hc      1531 PP       0.063200
  13780 C2         68.8900   69.7200   59.0600 c3      1532 PP      -0.006100
  13781 C1         68.3700   69.0100   60.3500 c3      1532 PP       0.076800
  13782 CB         67.6800   70.0800   61.3300 c3      1532 PP      -0.265900
  13783 H21        68.2100   70.5000   58.6900 hc      1532 PP       0.001900
  13784 H22        68.9100   68.9500   58.2800 hc      1532 PP       0.001900
  13785 H1         69.2300   68.5300   60.8400 hc      1532 PP       0.001800
  13786 HB1        66.6400   70.3400   61.0900 hc      1532 PP       0.063200
  13787 HB2        67.5000   69.6500   62.3200 hc      1532 PP       0.063200
  13788 HB3        68.3100   70.9600   61.5200 hc      1532 PP       0.063200
  13789 C2         67.3900   67.8800   59.9800 c3      1533 PP      -0.006100
  13790 C1         66.5600   67.2600   61.2100 c3      1533 PP       0.076800
  13791 CB         65.5400   66.1600   60.7000 c3      1533 PP      -0.265900
  13792 H21        66.8100   68.3000   59.1500 hc      1533 PP       0.001900
  13793 H22        68.0400   67.0900   59.6000 hc      1533 PP       0.001900
  13794 H1         65.9800   68.0900   61.6300 hc      1533 PP       0.001800
  13795 HB1        64.9000   65.6900   61.4600 hc      1533 PP       0.063200
  13796 HB2        64.8900   66.5600   59.9000 hc      1533 PP       0.063200
  13797 HB3        66.0900   65.3700   60.1700 hc      1533 PP       0.063200
  13798 C2         67.5700   66.7000   62.2500 c3      1534 PP      -0.006100
  13799 C1         66.9200   65.8900   63.4400 c3      1534 PP       0.076800
  13800 CB         67.2800   64.4800   63.2300 c3      1534 PP      -0.265900
  13801 H21        68.3300   66.1000   61.7400 hc      1534 PP       0.001900
  13802 H22        68.1800   67.5000   62.6800 hc      1534 PP       0.001900
  13803 H1         65.8200   65.9500   63.4700 hc      1534 PP       0.001800
  13804 HB1        68.3400   64.3200   63.0000 hc      1534 PP       0.063200
  13805 HB2        67.0800   63.9000   64.1300 hc      1534 PP       0.063200
  13806 HB3        66.7700   64.0500   62.3500 hc      1534 PP       0.063200
  13807 C2         67.4900   66.3200   64.8600 c3      1535 PP      -0.006100
  13808 C1         66.9000   67.6600   65.4300 c3      1535 PP       0.076800
  13809 CB         65.4100   67.3500   65.8200 c3      1535 PP      -0.265900
  13810 H21        67.3600   65.4800   65.5500 hc      1535 PP       0.001900
  13811 H22        68.5800   66.4200   64.9400 hc      1535 PP       0.001900
  13812 H1         66.7300   68.4500   64.7000 hc      1535 PP       0.001800
  13813 HB1        64.9000   67.2900   64.8500 hc      1535 PP       0.063200
  13814 HB2        65.3300   66.3700   66.3000 hc      1535 PP       0.063200
  13815 HB3        65.0800   68.2500   66.3400 hc      1535 PP       0.063200
  13816 C2         67.7200   68.2400   66.6400 c3      1536 PP      -0.006100
  13817 C1         69.1000   69.0000   66.4300 c3      1536 PP       0.076800
  13818 CB         70.2400   68.0100   66.0900 c3      1536 PP      -0.265900
  13819 H21        67.0400   68.9300   67.1600 hc      1536 PP       0.001900
  13820 H22        67.7500   67.4900   67.4300 hc      1536 PP       0.001900
  13821 H1         69.4500   69.4500   67.3700 hc      1536 PP       0.001800
  13822 HB1        71.1700   68.5200   66.3700 hc      1536 PP       0.063200
  13823 HB2        70.1000   67.0900   66.6600 hc      1536 PP       0.063200
  13824 HB3        70.1300   67.8300   65.0100 hc      1536 PP       0.063200
  13825 C2         69.1000   70.1600   65.4400 c3      1537 PP      -0.006100
  13826 C1         68.2600   71.4100   65.9800 c3      1537 PP       0.076800
  13827 CB         69.1500   72.3400   66.8300 c3      1537 PP      -0.265900
  13828 H21        70.1500   70.4200   65.2700 hc      1537 PP       0.001900
  13829 H22        68.7500   69.8200   64.4500 hc      1537 PP       0.001900
  13830 H1         67.3900   71.1700   66.6000 hc      1537 PP       0.001800
  13831 HB1        69.5900   71.7800   67.6600 hc      1537 PP       0.063200
  13832 HB2        69.9900   72.8100   66.3000 hc      1537 PP       0.063200
  13833 HB3        68.5700   73.1800   67.2300 hc      1537 PP       0.063200
  13834 C2         67.7000   72.1600   64.6900 c3      1538 PP      -0.006100
  13835 C1         66.9300   73.4600   64.8600 c3      1538 PP       0.076800
  13836 CB         66.8200   74.0800   63.4100 c3      1538 PP      -0.265900
  13837 H21        68.5000   72.3200   63.9600 hc      1538 PP       0.001900
  13838 H22        67.1400   71.5000   64.0200 hc      1538 PP       0.001900
  13839 H1         67.4900   74.1300   65.5100 hc      1538 PP       0.001800
  13840 HB1        66.7800   75.1700   63.4600 hc      1538 PP       0.063200
  13841 HB2        67.7200   73.9100   62.8100 hc      1538 PP       0.063200
  13842 HB3        66.0100   73.6600   62.7900 hc      1538 PP       0.063200
  13843 C2         65.5700   73.1500   65.6500 c3      1539 PP      -0.006100
  13844 C1         64.5400   74.3000   65.6000 c3      1539 PP       0.076800
  13845 CB         63.2500   73.9600   66.3400 c3      1539 PP      -0.265900
  13846 H21        65.0300   72.2500   65.3400 hc      1539 PP       0.001900
  13847 H22        65.8100   72.8900   66.6900 hc      1539 PP       0.001900
  13848 H1         64.3900   74.4600   64.5300 hc      1539 PP       0.001800
  13849 HB1        62.5200   74.7200   66.0100 hc      1539 PP       0.063200
  13850 HB2        62.7900   73.0100   66.0500 hc      1539 PP       0.063200
  13851 HB3        63.3600   73.9000   67.4300 hc      1539 PP       0.063200
  13852 C2         65.1500   75.7200   66.0300 c3      1540 PP      -0.006100
  13853 C1         64.2000   76.8800   65.5100 c3      1540 PP       0.076800
  13854 CB         64.1200   78.0300   66.5600 c3      1540 PP      -0.265900
  13855 H21        65.2800   75.7900   67.1200 hc      1540 PP       0.001900
  13856 H22        66.1600   75.7700   65.6100 hc      1540 PP       0.001900
  13857 H1         63.1500   76.5700   65.4100 hc      1540 PP       0.001800
  13858 HB1        65.0200   78.6400   66.3900 hc      1540 PP       0.063200
  13859 HB2        63.2000   78.5900   66.3900 hc      1540 PP       0.063200
  13860 HB3        64.1700   77.5700   67.5500 hc      1540 PP       0.063200
  13861 C2         64.6500   77.3500   64.0900 c3      1541 PP      -0.006100
  13862 C1         63.8700   78.5900   63.6100 c3      1541 PP       0.076800
  13863 CB         64.5400   78.9900   62.2900 c3      1541 PP      -0.265900
  13864 H21        65.7000   77.6700   64.1600 hc      1541 PP       0.001900
  13865 H22        64.5400   76.5600   63.3300 hc      1541 PP       0.001900
  13866 H1         64.0100   79.3900   64.3400 hc      1541 PP       0.001800
  13867 HB1        64.4200   80.0700   62.1800 hc      1541 PP       0.063200
  13868 HB2        65.6300   78.8700   62.2600 hc      1541 PP       0.063200
  13869 HB3        64.1500   78.5100   61.3800 hc      1541 PP       0.063200
  13870 C2         62.3100   78.4500   63.4700 c3      1542 PP      -0.006100
  13871 C1         61.5900   79.7700   62.9700 c3      1542 PP       0.076800
  13872 CB         61.3900   79.7900   61.4500 c3      1542 PP      -0.265900
  13873 H21        62.2900   77.7200   62.6500 hc      1542 PP       0.001900
  13874 H22        61.8300   77.8600   64.2600 hc      1542 PP       0.001900
  13875 H1         62.2900   80.6100   63.0200 hc      1542 PP       0.001800
  13876 HB1        60.4600   79.3200   61.1100 hc      1542 PP       0.063200
  13877 HB2        61.1800   80.8300   61.1400 hc      1542 PP       0.063200
  13878 HB3        62.2100   79.3800   60.8600 hc      1542 PP       0.063200
  13879 C2         60.3100    0.1400   63.7700 c3      1543 PP      -0.006100
  13880 C1         60.4800    0.6700   65.2900 c3      1543 PP       0.076800
  13881 CB         61.0100    2.1400   65.3600 c3      1543 PP      -0.265900
  13882 H21        59.9800    1.0400   63.2300 hc      1543 PP       0.001900
  13883 H22        59.5400   -0.6300   63.7200 hc      1543 PP       0.001900
  13884 H1         61.2700    0.0400   65.7100 hc      1543 PP       0.001800
  13885 HB1        62.0600    2.1000   65.0600 hc      1543 PP       0.063200
  13886 HB2        60.3800    2.7100   64.6700 hc      1543 PP       0.063200
  13887 HB3        61.0600    2.5000   66.3900 hc      1543 PP       0.063200
  13888 C2         59.1100    0.6000   66.1000 c3      1544 PP      -0.006100
  13889 C1         57.8700    1.5200   65.7200 c3      1544 PP       0.076800
  13890 CB         58.0100    2.8600   66.5100 c3      1544 PP      -0.265900
  13891 H21        58.8200   -0.4600   66.0100 hc      1544 PP       0.001900
  13892 H22        59.3900    0.7200   67.1500 hc      1544 PP       0.001900
  13893 H1         56.9500    1.1200   66.1500 hc      1544 PP       0.001800
  13894 HB1        59.0200    3.2700   66.5500 hc      1544 PP       0.063200
  13895 HB2        57.3300    3.6400   66.1600 hc      1544 PP       0.063200
  13896 HB3        57.6600    2.7600   67.5500 hc      1544 PP       0.063200
  13897 C2         57.6100    1.7500   64.1900 c3      1545 PP      -0.006100
  13898 C1         56.2100    2.3600   63.7900 c3      1545 PP       0.076800
  13899 CB         56.2600    2.5700   62.2600 c3      1545 PP      -0.265900
  13900 H21        58.4200    2.3900   63.8200 hc      1545 PP       0.001900
  13901 H22        57.6700    0.7300   63.7700 hc      1545 PP       0.001900
  13902 H1         55.9900    3.2600   64.3800 hc      1545 PP       0.001800
  13903 HB1        56.2900    1.6900   61.6100 hc      1545 PP       0.063200
  13904 HB2        55.3500    3.0700   61.8800 hc      1545 PP       0.063200
  13905 HB3        57.1100    3.1900   61.9800 hc      1545 PP       0.063200
  13906 C2         55.1400    1.2600   64.2300 c3      1546 PP      -0.006100
  13907 C1         53.7200    1.2100   63.5700 c3      1546 PP       0.076800
  13908 CB         53.0000   -0.1600   63.8900 c3      1546 PP      -0.265900
  13909 H21        55.6000    0.2700   64.2800 hc      1546 PP       0.001900
  13910 H22        54.9100    1.6100   65.2500 hc      1546 PP       0.001900
  13911 H1         53.8300    1.2900   62.4800 hc      1546 PP       0.001800
  13912 HB1        53.6200   -0.9300   63.4100 hc      1546 PP       0.063200
  13913 HB2        52.9300   -0.3300   64.9700 hc      1546 PP       0.063200
  13914 HB3        52.0100   -0.1700   63.4200 hc      1546 PP       0.063200
  13915 C2         52.7700    2.3700   63.9000 c3      1547 PP      -0.006100
  13916 C1         52.2800    2.6200   65.3900 c3      1547 PP       0.076800
  13917 CB         52.8600    3.9900   65.8900 c3      1547 PP      -0.265900
  13918 H21        53.1700    3.2600   63.4000 hc      1547 PP       0.001900
  13919 H22        51.8400    2.2300   63.3300 hc      1547 PP       0.001900
  13920 H1         52.5900    1.7900   66.0400 hc      1547 PP       0.001800
  13921 HB1        52.5900    4.1900   66.9300 hc      1547 PP       0.063200
  13922 HB2        53.9400    4.1200   65.7500 hc      1547 PP       0.063200
  13923 HB3        52.3100    4.7500   65.3200 hc      1547 PP       0.063200
  13924 C2         50.7300    2.6600   65.6000 c3      1548 PP      -0.006100
  13925 C1         50.0600    1.2600   65.6400 c3      1548 PP       0.076800
  13926 CB         50.6000    0.5000   66.9500 c3      1548 PP      -0.265900
  13927 H21        50.4600    3.2600   66.4800 hc      1548 PP       0.001900
  13928 H22        50.3000    3.3100   64.8300 hc      1548 PP       0.001900
  13929 H1         50.3600    0.6500   64.7700 hc      1548 PP       0.001800
  13930 HB1        50.7500    1.1500   67.8300 hc      1548 PP       0.063200
  13931 HB2        49.8500   -0.2100   67.3300 hc      1548 PP       0.063200
  13932 HB3        51.5400   -0.0200   66.7100 hc      1548 PP       0.063200
  13933 C2         48.5300    1.3800   65.7100 c3      1549 PP      -0.006100
  13934 C1         47.7500    2.1200   64.5200 c3      1549 PP       0.076800
  13935 CB         48.3000    1.6700   63.1800 c3      1549 PP      -0.265900
  13936 H21        48.2200    0.3300   65.7300 hc      1549 PP       0.001900
  13937 H22        48.3000    1.7400   66.7200 hc      1549 PP       0.001900
  13938 H1         47.8500    3.2100   64.6500 hc      1549 PP       0.001800
  13939 HB1        47.6800    2.0900   62.3800 hc      1549 PP       0.063200
  13940 HB2        49.3400    1.9900   63.0000 hc      1549 PP       0.063200
  13941 HB3        48.2500    0.5800   63.1200 hc      1549 PP       0.063200
  13942 C2         46.2700    1.7900   64.5700 c3      1550 PP      -0.006100
  13943 C1         45.4500    2.1000   65.8400 c3      1550 PP       0.076800
  13944 CB         45.5700    3.6200   66.2100 c3      1550 PP      -0.265900
  13945 H21        45.9200    2.4000   63.7300 hc      1550 PP       0.001900
  13946 H22        46.2000    0.7200   64.3300 hc      1550 PP       0.001900
  13947 H1         45.8300    1.5100   66.6800 hc      1550 PP       0.001800
  13948 HB1        44.6400    3.9700   66.6800 hc      1550 PP       0.063200
  13949 HB2        46.3600    3.7300   66.9600 hc      1550 PP       0.063200
  13950 HB3        45.7900    4.2100   65.3100 hc      1550 PP       0.063200
  13951 C2         43.9700    1.7400   65.7200 c3      1551 PP      -0.006100
  13952 C1         43.8300    0.2200   65.3700 c3      1551 PP       0.076800
  13953 CB         42.8100   -0.3500   66.4100 c3      1551 PP      -0.265900
  13954 H21        43.4900    2.0900   66.6400 hc      1551 PP       0.001900
  13955 H22        43.4800    2.3500   64.9500 hc      1551 PP       0.001900
  13956 H1         44.7300   -0.2700   65.7500 hc      1551 PP       0.001800
  13957 HB1        43.2300   -0.0900   67.3800 hc      1551 PP       0.063200
  13958 HB2        41.7600   -0.0400   66.3800 hc      1551 PP       0.063200
  13959 HB3        42.8400   -1.4400   66.2900 hc      1551 PP       0.063200
  13960 C2         43.4900   79.8600   63.9400 c3      1552 PP      -0.006100
  13961 C1         43.8300   78.4100   63.5200 c3      1552 PP       0.076800
  13962 CB         42.5400   77.4800   63.3000 c3      1552 PP      -0.265900
  13963 H21        42.4200   80.0600   63.8300 hc      1552 PP       0.001900
  13964 H22        44.0000   80.6100   63.3300 hc      1552 PP       0.001900
  13965 H1         44.5700   78.0000   64.2100 hc      1552 PP       0.001800
  13966 HB1        42.7300   76.4300   63.0300 hc      1552 PP       0.063200
  13967 HB2        41.8700   77.5100   64.1700 hc      1552 PP       0.063200
  13968 HB3        41.9900   77.9000   62.4600 hc      1552 PP       0.063200
  13969 C2         44.6800   78.5400   62.2200 c3      1553 PP      -0.006100
  13970 C1         45.6900   77.4000   61.9400 c3      1553 PP       0.076800
  13971 CB         45.3800   75.8700   62.4300 c3      1553 PP      -0.265900
  13972 H21        43.9600   78.6700   61.3900 hc      1553 PP       0.001900
  13973 H22        45.2500   79.4600   62.0400 hc      1553 PP       0.001900
  13974 H1         46.4700   77.8100   62.5900 hc      1553 PP       0.001800
  13975 HB1        45.2100   75.7000   63.5000 hc      1553 PP       0.063200
  13976 HB2        44.4500   75.5500   61.9400 hc      1553 PP       0.063200
  13977 HB3        46.1700   75.1500   62.1900 hc      1553 PP       0.063200
  13978 C2         46.2200   77.3800   60.4800 c3      1554 PP      -0.006100
  13979 C1         47.6400   76.6700   60.2400 c3      1554 PP       0.076800
  13980 CB         47.9300   76.7300   58.7800 c3      1554 PP      -0.265900
  13981 H21        45.4400   76.8400   59.9200 hc      1554 PP       0.001900
  13982 H22        46.2600   78.3900   60.0800 hc      1554 PP       0.001900
  13983 H1         47.5600   75.6400   60.6100 hc      1554 PP       0.001800
  13984 HB1        48.9500   76.4200   58.5300 hc      1554 PP       0.063200
  13985 HB2        47.2400   76.1000   58.2000 hc      1554 PP       0.063200
  13986 HB3        47.9000   77.7800   58.4800 hc      1554 PP       0.063200
  13987 C2         48.8700   77.3000   61.0400 c3      1555 PP      -0.006100
  13988 C1         49.2900   76.4900   62.3100 c3      1555 PP       0.076800
  13989 CB         50.4200   75.4000   62.0400 c3      1555 PP      -0.265900
  13990 H21        49.8100   77.3700   60.4900 hc      1555 PP       0.001900
  13991 H22        48.6400   78.3300   61.3400 hc      1555 PP       0.001900
  13992 H1         48.4200   75.9300   62.6800 hc      1555 PP       0.001800
  13993 HB1        50.4100   74.7200   62.9000 hc      1555 PP       0.063200
  13994 HB2        50.1700   74.8200   61.1400 hc      1555 PP       0.063200
  13995 HB3        51.4000   75.8500   61.8500 hc      1555 PP       0.063200
  13996 C2         49.8800   77.4300   63.5000 c3      1556 PP      -0.006100
  13997 C1         49.5900   76.7400   64.9500 c3      1556 PP       0.076800
  13998 CB         50.6300   77.2000   65.9900 c3      1556 PP      -0.265900
  13999 H21        50.9700   77.5300   63.3800 hc      1556 PP       0.001900
  14000 H22        49.3500   78.3900   63.4200 hc      1556 PP       0.001900
  14001 H1         49.6600   75.6700   64.7400 hc      1556 PP       0.001800
  14002 HB1        50.7200   78.3000   66.0300 hc      1556 PP       0.063200
  14003 HB2        50.3900   76.8300   66.9900 hc      1556 PP       0.063200
  14004 HB3        51.6400   76.8100   65.7800 hc      1556 PP       0.063200
  14005 C2         48.0400   77.1200   65.2800 c3      1557 PP      -0.006100
  14006 C1         47.5800   76.6400   66.7200 c3      1557 PP       0.076800
  14007 CB         46.1700   77.2200   66.9300 c3      1557 PP      -0.265900
  14008 H21        47.7000   78.1600   65.1800 hc      1557 PP       0.001900
  14009 H22        47.4300   76.5900   64.5400 hc      1557 PP       0.001900
  14010 H1         48.3000   77.2100   67.3200 hc      1557 PP       0.001800
  14011 HB1        45.4900   76.9700   66.1100 hc      1557 PP       0.063200
  14012 HB2        45.9200   77.0700   67.9900 hc      1557 PP       0.063200
  14013 HB3        46.2200   78.3100   66.9900 hc      1557 PP       0.063200
  14014 C2         47.7900   75.0400   66.9300 c3      1558 PP      -0.006100
  14015 C1         46.9200   74.1600   65.9800 c3      1558 PP       0.076800
  14016 CB         47.6200   72.9700   65.3500 c3      1558 PP      -0.265900
  14017 H21        48.8500   74.8800   66.6900 hc      1558 PP       0.001900
  14018 H22        47.6600   74.6400   67.9500 hc      1558 PP       0.001900
  14019 H1         46.5500   74.8000   65.1700 hc      1558 PP       0.001800
  14020 HB1        47.8100   72.1900   66.1100 hc      1558 PP       0.063200
  14021 HB2        47.0400   72.4500   64.5700 hc      1558 PP       0.063200
  14022 HB3        48.6000   73.2400   64.9300 hc      1558 PP       0.063200
  14023 C2         45.5300   73.7900   66.6700 c3      1559 PP      -0.006100
  14024 C1         44.4800   73.0300   65.7200 c3      1559 PP       0.076800
  14025 CB         44.5200   71.5000   65.7200 c3      1559 PP      -0.265900
  14026 H21        45.6700   73.1200   67.5300 hc      1559 PP       0.001900
  14027 H22        45.0300   74.6700   67.1100 hc      1559 PP       0.001900
  14028 H1         44.5900   73.3500   64.6800 hc      1559 PP       0.001800
  14029 HB1        45.5200   71.1500   65.9800 hc      1559 PP       0.063200
  14030 HB2        43.7300   71.0400   66.3300 hc      1559 PP       0.063200
  14031 HB3        44.3100   71.2200   64.6800 hc      1559 PP       0.063200
  14032 C2         43.0500   73.3500   66.1800 c3      1560 PP      -0.006100
  14033 C1         42.7000   74.8700   65.8400 c3      1560 PP       0.076800
  14034 CB         41.4400   75.4100   66.5200 c3      1560 PP      -0.265900
  14035 H21        42.8100   73.2100   67.2400 hc      1560 PP       0.001900
  14036 H22        42.3200   72.8000   65.5700 hc      1560 PP       0.001900
  14037 H1         42.7400   75.0800   64.7600 hc      1560 PP       0.001800
  14038 HB1        41.6100   75.8200   67.5200 hc      1560 PP       0.063200
  14039 HB2        40.9400   76.0400   65.7700 hc      1560 PP       0.063200
  14040 HB3        40.8300   74.5100   66.6200 hc      1560 PP       0.063200
  14041 C2          6.7400   13.0100   56.0900 c3      1561 PP      -0.006100
  14042 C1          6.0000   11.9100   56.8500 c3      1561 PP       0.076800
  14043 CB          4.6100   11.7200   56.2300 c3      1561 PP      -0.265900
  14044 H21         6.1900   13.9500   56.2200 hc      1561 PP       0.001900
  14045 H22         6.8300   12.8200   55.0100 hc      1561 PP       0.001900
  14046 H1          5.7600   12.3100   57.8400 hc      1561 PP       0.001800
  14047 HB1         3.9800   11.0100   56.7800 hc      1561 PP       0.063200
  14048 HB2         4.0900   12.6800   56.2600 hc      1561 PP       0.063200
  14049 HB3         4.7000   11.4300   55.1700 hc      1561 PP       0.063200
  14050 C2          6.8700   10.5600   57.0200 c3      1562 PP      -0.006100
  14051 C1          6.3900    9.6300   58.2000 c3      1562 PP       0.076800
  14052 CB          6.3600    8.1100   57.8100 c3      1562 PP      -0.265900
  14053 H21         7.0000    9.9900   56.1000 hc      1562 PP       0.001900
  14054 H22         7.9400   10.6700   57.2400 hc      1562 PP       0.001900
  14055 H1          5.3400    9.9400   58.3300 hc      1562 PP       0.001800
  14056 HB1         5.6400    7.5800   58.4400 hc      1562 PP       0.063200
  14057 HB2         6.2200    7.9800   56.7300 hc      1562 PP       0.063200
  14058 HB3         7.3000    7.6000   58.0700 hc      1562 PP       0.063200
  14059 C2          7.2400    9.8900   59.5100 c3      1563 PP      -0.006100
  14060 C1          6.4600    9.6500   60.8100 c3      1563 PP       0.076800
  14061 CB          7.3500    9.7000   62.0800 c3      1563 PP      -0.265900
  14062 H21         8.1500    9.2700   59.5100 hc      1563 PP       0.001900
  14063 H22         7.5500   10.9300   59.4000 hc      1563 PP       0.001900
  14064 H1          5.9600    8.6700   60.7800 hc      1563 PP       0.001800
  14065 HB1         8.2300    9.0800   61.8900 hc      1563 PP       0.063200
  14066 HB2         7.8100   10.6800   62.2500 hc      1563 PP       0.063200
  14067 HB3         6.8500    9.4300   63.0200 hc      1563 PP       0.063200
  14068 C2          5.3400   10.8100   61.2000 c3      1564 PP      -0.006100
  14069 C1          3.8500   10.3500   61.1500 c3      1564 PP       0.076800
  14070 CB          3.5400    9.3400   62.3000 c3      1564 PP      -0.265900
  14071 H21         5.4300   11.2400   62.2000 hc      1564 PP       0.001900
  14072 H22         5.4300   11.5200   60.3700 hc      1564 PP       0.001900
  14073 H1          3.6700    9.8400   60.2000 hc      1564 PP       0.001800
  14074 HB1         3.7900    9.8200   63.2600 hc      1564 PP       0.063200
  14075 HB2         2.4900    9.0700   62.3900 hc      1564 PP       0.063200
  14076 HB3         4.2000    8.4700   62.1800 hc      1564 PP       0.063200
  14077 C2          2.8500   11.5200   61.2000 c3      1565 PP      -0.006100
  14078 C1          1.3900   11.2700   60.7500 c3      1565 PP       0.076800
  14079 CB          0.3400   11.1500   61.8500 c3      1565 PP      -0.265900
  14080 H21         2.7400   11.7100   62.2700 hc      1565 PP       0.001900
  14081 H22         3.2700   12.4600   60.8200 hc      1565 PP       0.001900
  14082 H1          1.4700   10.3600   60.1400 hc      1565 PP       0.001800
  14083 HB1         0.0600   12.1700   62.1500 hc      1565 PP       0.063200
  14084 HB2        -0.5300   10.5900   61.4900 hc      1565 PP       0.063200
  14085 HB3         0.6700   10.5700   62.7200 hc      1565 PP       0.063200
  14086 C2         80.9400   12.3600   59.7200 c3      1566 PP      -0.006100
  14087 C1         79.4300   12.5500   59.3500 c3      1566 PP       0.076800
  14088 CB         79.2400   13.9700   58.5600 c3      1566 PP      -0.265900
  14089 H21        81.3100   13.3300   60.0800 hc      1566 PP       0.001900
  14090 H22        81.4300   12.1200   58.7700 hc      1566 PP       0.001900
  14091 H1         78.9100   12.8100   60.2800 hc      1566 PP       0.001800
  14092 HB1        78.1900   14.2600   58.4500 hc      1566 PP       0.063200
  14093 HB2        79.6800   14.7600   59.1800 hc      1566 PP       0.063200
  14094 HB3        79.8500   13.9100   57.6500 hc      1566 PP       0.063200
  14095 C2         78.7300   11.3800   58.6200 c3      1567 PP      -0.006100
  14096 C1         77.4100   10.9700   59.2400 c3      1567 PP       0.076800
  14097 CB         76.2700   12.0700   59.2600 c3      1567 PP      -0.265900
  14098 H21        78.6300   11.7000   57.5800 hc      1567 PP       0.001900
  14099 H22        79.4400   10.5400   58.5900 hc      1567 PP       0.001900
  14100 H1         77.7400   10.7700   60.2700 hc      1567 PP       0.001800
  14101 HB1        75.4100   11.5100   59.6300 hc      1567 PP       0.063200
  14102 HB2        76.6400   12.8300   59.9700 hc      1567 PP       0.063200
  14103 HB3        76.0900   12.3400   58.2200 hc      1567 PP       0.063200
  14104 C2         76.8600    9.6600   58.5500 c3      1568 PP      -0.006100
  14105 C1         75.9300    8.8500   59.5600 c3      1568 PP       0.076800
  14106 CB         74.5400    8.5400   58.9300 c3      1568 PP      -0.265900
  14107 H21        76.2500   10.0100   57.7100 hc      1568 PP       0.001900
  14108 H22        77.6600    8.9800   58.2500 hc      1568 PP       0.001900
  14109 H1         75.6900    9.4700   60.4300 hc      1568 PP       0.001800
  14110 HB1        74.0900    9.5200   58.7500 hc      1568 PP       0.063200
  14111 HB2        74.6100    8.0600   57.9500 hc      1568 PP       0.063200
  14112 HB3        73.9000    7.8300   59.4600 hc      1568 PP       0.063200
  14113 C2         76.6600    7.6000   60.1000 c3      1569 PP      -0.006100
  14114 C1         77.7000    7.9000   61.2100 c3      1569 PP       0.076800
  14115 CB         77.1600    8.7200   62.3800 c3      1569 PP      -0.265900
  14116 H21        75.9300    6.9200   60.5400 hc      1569 PP       0.001900
  14117 H22        77.0600    6.9600   59.3000 hc      1569 PP       0.001900
  14118 H1         78.5200    8.4200   60.6900 hc      1569 PP       0.001800
  14119 HB1        77.8400    8.5900   63.2300 hc      1569 PP       0.063200
  14120 HB2        77.1400    9.7700   62.0600 hc      1569 PP       0.063200
  14121 HB3        76.1300    8.4200   62.5900 hc      1569 PP       0.063200
  14122 C2         78.3400    6.5700   61.8600 c3      1570 PP      -0.006100
  14123 C1         79.2800    5.8000   60.9500 c3      1570 PP       0.076800
  14124 CB         80.6500    6.4700   61.0900 c3      1570 PP      -0.265900
  14125 H21        78.8200    6.7800   62.8200 hc      1570 PP       0.001900
  14126 H22        77.5300    5.8900   62.1500 hc      1570 PP       0.001900
  14127 H1         79.0000    5.7700   59.8900 hc      1570 PP       0.001800
  14128 HB1        81.1400    6.3100   62.0600 hc      1570 PP       0.063200
  14129 HB2        81.3400    6.1100   60.3200 hc      1570 PP       0.063200
  14130 HB3        80.6300    7.5400   60.8600 hc      1570 PP       0.063200
  14131 C2         -0.5700    4.3300   61.4300 c3      1571 PP      -0.006100
  14132 C1          0.5000    3.4100   60.7600 c3      1571 PP       0.076800
  14133 CB          0.6600    1.9400   61.3100 c3      1571 PP      -0.265900
  14134 H21        -0.2500    4.4400   62.4800 hc      1571 PP       0.001900
  14135 H22        -1.5900    3.9400   61.4800 hc      1571 PP       0.001900
  14136 H1          1.4500    3.9300   60.9000 hc      1571 PP       0.001800
  14137 HB1        -0.2800    1.4000   61.1400 hc      1571 PP       0.063200
  14138 HB2         1.4300    1.4800   60.6800 hc      1571 PP       0.063200
  14139 HB3         0.9500    1.9400   62.3600 hc      1571 PP       0.063200
  14140 C2          0.3000    3.3500   59.1900 c3      1572 PP      -0.006100
  14141 C1          1.5100    2.8700   58.2900 c3      1572 PP       0.076800
  14142 CB          0.9700    2.4500   56.9200 c3      1572 PP      -0.265900
  14143 H21        -0.5000    2.6100   59.0400 hc      1572 PP       0.001900
  14144 H22         0.0300    4.3700   58.9100 hc      1572 PP       0.001900
  14145 H1          1.9200    1.9600   58.7400 hc      1572 PP       0.001800
  14146 HB1         1.5800    1.7100   56.3800 hc      1572 PP       0.063200
  14147 HB2        -0.0400    2.0100   56.9600 hc      1572 PP       0.063200
  14148 HB3         0.8700    3.4100   56.4100 hc      1572 PP       0.063200
  14149 C2          2.6300    3.8800   58.2400 c3      1573 PP      -0.006100
  14150 C1          3.9300    3.5200   57.3900 c3      1573 PP       0.076800
  14151 CB          4.9600    4.5100   57.7600 c3      1573 PP      -0.265900
  14152 H21         2.1600    4.7400   57.7400 hc      1573 PP       0.001900
  14153 H22         2.9000    4.1700   59.2700 hc      1573 PP       0.001900
  14154 H1          3.5700    3.5400   56.3500 hc      1573 PP       0.001800
  14155 HB1         5.6600    4.5000   56.9100 hc      1573 PP       0.063200
  14156 HB2         4.5700    5.5400   57.7700 hc      1573 PP       0.063200
  14157 HB3         5.4300    4.4100   58.7500 hc      1573 PP       0.063200
  14158 C2          4.4500    2.0300   57.5300 c3      1574 PP      -0.006100
  14159 C1          5.3300    1.6800   58.7700 c3      1574 PP       0.076800
  14160 CB          4.6700    1.7700   60.1900 c3      1574 PP      -0.265900
  14161 H21         3.6700    1.2800   57.6900 hc      1574 PP       0.001900
  14162 H22         4.9700    1.7600   56.6000 hc      1574 PP       0.001900
  14163 H1          6.1900    2.3600   58.7500 hc      1574 PP       0.001800
  14164 HB1         3.7300    1.2000   60.1300 hc      1574 PP       0.063200
  14165 HB2         5.2800    1.3700   61.0000 hc      1574 PP       0.063200
  14166 HB3         4.3100    2.7800   60.4200 hc      1574 PP       0.063200
  14167 C2          5.8900    0.3300   58.5700 c3      1575 PP      -0.006100
  14168 C1          7.3600    0.1100   57.9900 c3      1575 PP       0.076800
  14169 CB          8.4800    0.6900   58.9800 c3      1575 PP      -0.265900
  14170 H21         5.7600   -0.1600   59.5500 hc      1575 PP       0.001900
  14171 H22         5.1900   -0.3000   57.9900 hc      1575 PP       0.001900
  14172 H1          7.5200    0.6500   57.0600 hc      1575 PP       0.001800
  14173 HB1         8.6500    1.7500   58.7900 hc      1575 PP       0.063200
  14174 HB2         8.2000    0.7000   60.0400 hc      1575 PP       0.063200
  14175 HB3         9.4000    0.1400   58.7700 hc      1575 PP       0.063200
  14176 C2          7.6300   78.6000   57.7200 c3      1576 PP      -0.006100
  14177 C1          6.9400   78.1500   56.4600 c3      1576 PP       0.076800
  14178 CB          7.6600   78.5100   55.1700 c3      1576 PP      -0.265900
  14179 H21         8.6800   78.3000   57.6300 hc      1576 PP       0.001900
  14180 H22         7.1900   78.1300   58.6100 hc      1576 PP       0.001900
  14181 H1          5.9700   78.6600   56.4100 hc      1576 PP       0.001800
  14182 HB1         6.9100   78.5800   54.3700 hc      1576 PP       0.063200
  14183 HB2         8.1500   79.4800   55.3000 hc      1576 PP       0.063200
  14184 HB3         8.4700   77.8300   54.9000 hc      1576 PP       0.063200
  14185 C2          6.5800   76.6500   56.4700 c3      1577 PP      -0.006100
  14186 C1          5.2500   76.3000   57.2000 c3      1577 PP       0.076800
  14187 CB          4.0000   76.8800   56.5200 c3      1577 PP      -0.265900
  14188 H21         6.6000   76.1900   55.4800 hc      1577 PP       0.001900
  14189 H22         7.3600   76.2200   57.1200 hc      1577 PP       0.001900
  14190 H1          5.3500   76.7600   58.1900 hc      1577 PP       0.001800
  14191 HB1         3.1800   76.6900   57.2200 hc      1577 PP       0.063200
  14192 HB2         4.0100   77.9600   56.3300 hc      1577 PP       0.063200
  14193 HB3         3.8100   76.3600   55.5700 hc      1577 PP       0.063200
  14194 C2          4.9400   74.7800   57.2900 c3      1578 PP      -0.006100
  14195 C1          6.0400   73.8800   58.0500 c3      1578 PP       0.076800
  14196 CB          6.2700   74.3100   59.5600 c3      1578 PP      -0.265900
  14197 H21         4.0000   74.6800   57.8500 hc      1578 PP       0.001900
  14198 H22         4.7700   74.3500   56.3000 hc      1578 PP       0.001900
  14199 H1          6.9500   73.9600   57.4400 hc      1578 PP       0.001800
  14200 HB1         5.3700   73.9900   60.0900 hc      1578 PP       0.063200
  14201 HB2         7.1600   73.8400   59.9900 hc      1578 PP       0.063200
  14202 HB3         6.4600   75.3600   59.8200 hc      1578 PP       0.063200
  14203 C2          5.4900   72.3800   57.9900 c3      1579 PP      -0.006100
  14204 C1          6.5100   71.3600   58.5300 c3      1579 PP       0.076800
  14205 CB          5.9100   69.9200   58.7400 c3      1579 PP      -0.265900
  14206 H21         4.6100   72.3300   58.6500 hc      1579 PP       0.001900
  14207 H22         5.4100   72.2200   56.9100 hc      1579 PP       0.001900
  14208 H1          6.7800   71.7100   59.5300 hc      1579 PP       0.001800
  14209 HB1         5.8900   69.4200   57.7600 hc      1579 PP       0.063200
  14210 HB2         6.5000   69.2500   59.3800 hc      1579 PP       0.063200
  14211 HB3         4.8800   69.8900   59.1200 hc      1579 PP       0.063200
  14212 C2          7.8000   71.3400   57.7300 c3      1580 PP      -0.006100
  14213 C1          8.8800   70.4500   58.3900 c3      1580 PP       0.076800
  14214 CB         10.0600   70.1900   57.3500 c3      1580 PP      -0.265900
  14215 H21         7.4900   71.1200   56.7000 hc      1580 PP       0.001900
  14216 H22         8.2500   72.3400   57.6800 hc      1580 PP       0.001900
  14217 H1          8.4500   69.4600   58.5800 hc      1580 PP       0.001800
  14218 HB1        10.8400   69.5800   57.8200 hc      1580 PP       0.063200
  14219 HB2         9.6100   69.6200   56.5300 hc      1580 PP       0.063200
  14220 HB3        10.4900   71.1300   57.0100 hc      1580 PP       0.063200
  14221 C2          9.4400   71.0500   59.7600 c3      1581 PP      -0.006100
  14222 C1          9.1900   70.1700   60.9800 c3      1581 PP       0.076800
  14223 CB         10.0600   68.8300   60.8900 c3      1581 PP      -0.265900
  14224 H21        10.5100   71.2800   59.6400 hc      1581 PP       0.001900
  14225 H22         9.0400   72.0700   59.8300 hc      1581 PP       0.001900
  14226 H1          8.1300   69.8800   60.9300 hc      1581 PP       0.001800
  14227 HB1        11.0900   69.2100   60.9100 hc      1581 PP       0.063200
  14228 HB2         9.8700   68.2700   61.8100 hc      1581 PP       0.063200
  14229 HB3         9.8700   68.1900   60.0200 hc      1581 PP       0.063200
  14230 C2          9.4200   70.9000   62.3400 c3      1582 PP      -0.006100
  14231 C1          8.3400   71.9600   62.7800 c3      1582 PP       0.076800
  14232 CB          6.9300   71.4000   63.0300 c3      1582 PP      -0.265900
  14233 H21         9.4900   70.1800   63.1600 hc      1582 PP       0.001900
  14234 H22        10.3500   71.4900   62.3100 hc      1582 PP       0.001900
  14235 H1          8.3300   72.7500   62.0100 hc      1582 PP       0.001800
  14236 HB1         6.8500   70.6500   63.8200 hc      1582 PP       0.063200
  14237 HB2         6.2100   72.2200   63.0400 hc      1582 PP       0.063200
  14238 HB3         6.6900   70.7600   62.1700 hc      1582 PP       0.063200
  14239 C2          8.8000   72.7600   64.0800 c3      1583 PP      -0.006100
  14240 C1          8.5200   74.3300   64.2300 c3      1583 PP       0.076800
  14241 CB          9.3600   75.1800   63.2300 c3      1583 PP      -0.265900
  14242 H21         8.4900   72.2800   65.0200 hc      1583 PP       0.001900
  14243 H22         9.8800   72.6900   64.2100 hc      1583 PP       0.001900
  14244 H1          8.9400   74.5700   65.2100 hc      1583 PP       0.001800
  14245 HB1        10.3900   75.3500   63.5800 hc      1583 PP       0.063200
  14246 HB2         9.4200   74.5600   62.3300 hc      1583 PP       0.063200
  14247 HB3         8.9800   76.1900   63.0100 hc      1583 PP       0.063200
  14248 C2          7.0400   74.6800   64.2400 c3      1584 PP      -0.006100
  14249 C1          6.1200   73.9700   65.3200 c3      1584 PP       0.076800
  14250 CB          6.6700   74.3900   66.7100 c3      1584 PP      -0.265900
  14251 H21         7.0100   75.7800   64.2700 hc      1584 PP       0.001900
  14252 H22         6.5500   74.5900   63.2600 hc      1584 PP       0.001900
  14253 H1          6.2100   72.8800   65.2400 hc      1584 PP       0.001800
  14254 HB1         6.5600   75.4200   67.0500 hc      1584 PP       0.063200
  14255 HB2         6.0700   73.8400   67.4400 hc      1584 PP       0.063200
  14256 HB3         7.6900   73.9800   66.7400 hc      1584 PP       0.063200
  14257 C2          4.7100   74.5000   65.1600 c3      1585 PP      -0.006100
  14258 C1          3.6000   73.8400   65.9800 c3      1585 PP       0.076800
  14259 CB          2.5200   74.8200   66.4400 c3      1585 PP      -0.265900
  14260 H21         4.7100   75.5700   65.4200 hc      1585 PP       0.001900
  14261 H22         4.4000   74.5300   64.1000 hc      1585 PP       0.001900
  14262 H1          4.0200   73.4400   66.9100 hc      1585 PP       0.001800
  14263 HB1         1.9300   75.2700   65.6300 hc      1585 PP       0.063200
  14264 HB2         1.7800   74.3400   67.0900 hc      1585 PP       0.063200
  14265 HB3         2.8900   75.6800   67.0200 hc      1585 PP       0.063200
  14266 C2          2.9800   72.6400   65.2000 c3      1586 PP      -0.006100
  14267 C1          2.4600   71.4800   66.1100 c3      1586 PP       0.076800
  14268 CB          1.3300   70.7100   65.3700 c3      1586 PP      -0.265900
  14269 H21         2.1900   72.9400   64.5100 hc      1586 PP       0.001900
  14270 H22         3.6600   72.2300   64.4500 hc      1586 PP       0.001900
  14271 H1          1.9900   71.8900   67.0100 hc      1586 PP       0.001800
  14272 HB1         0.8200   70.0100   66.0400 hc      1586 PP       0.063200
  14273 HB2         0.6400   71.3200   64.7900 hc      1586 PP       0.063200
  14274 HB3         1.8100   70.0500   64.6300 hc      1586 PP       0.063200
  14275 C2          3.6300   70.6100   66.8000 c3      1587 PP      -0.006100
  14276 C1          4.3500   69.4600   66.0200 c3      1587 PP       0.076800
  14277 CB          5.7500   69.3700   66.4700 c3      1587 PP      -0.265900
  14278 H21         4.4000   71.3300   67.1000 hc      1587 PP       0.001900
  14279 H22         3.3300   70.0900   67.7200 hc      1587 PP       0.001900
  14280 H1          4.3700   69.7700   64.9700 hc      1587 PP       0.001800
  14281 HB1         6.2200   70.3600   66.4400 hc      1587 PP       0.063200
  14282 HB2         5.8500   68.9500   67.4800 hc      1587 PP       0.063200
  14283 HB3         6.2600   68.7100   65.7600 hc      1587 PP       0.063200
  14284 C2          3.6400   68.0600   66.2600 c3      1588 PP      -0.006100
  14285 C1          4.2900   66.8100   65.5000 c3      1588 PP       0.076800
  14286 CB          4.6300   65.7500   66.6400 c3      1588 PP      -0.265900
  14287 H21         3.5900   67.9000   67.3400 hc      1588 PP       0.001900
  14288 H22         2.5900   68.1300   65.9400 hc      1588 PP       0.001900
  14289 H1          5.1700   67.1500   64.9400 hc      1588 PP       0.001800
  14290 HB1         3.7500   65.2500   67.0400 hc      1588 PP       0.063200
  14291 HB2         5.2900   64.9400   66.3100 hc      1588 PP       0.063200
  14292 HB3         5.1700   66.2600   67.4500 hc      1588 PP       0.063200
  14293 C2          3.3500   66.2000   64.3800 c3      1589 PP      -0.006100
  14294 C1          4.0300   65.0500   63.4500 c3      1589 PP       0.076800
  14295 CB          2.9500   64.1000   62.8100 c3      1589 PP      -0.265900
  14296 H21         2.3900   65.8000   64.7400 hc      1589 PP       0.001900
  14297 H22         3.1500   67.0500   63.7100 hc      1589 PP       0.001900
  14298 H1          4.6900   64.4500   64.0900 hc      1589 PP       0.001800
  14299 HB1         3.4000   63.3200   62.1900 hc      1589 PP       0.063200
  14300 HB2         2.3900   63.6300   63.6300 hc      1589 PP       0.063200
  14301 HB3         2.2600   64.6000   62.1200 hc      1589 PP       0.063200
  14302 C2          4.9700   65.7500   62.3800 c3      1590 PP      -0.006100
  14303 C1          6.2500   66.4200   62.8200 c3      1590 PP       0.076800
  14304 CB          6.8100   67.5300   62.0100 c3      1590 PP      -0.265900
  14305 H21         4.3500   66.4100   61.7600 hc      1590 PP       0.001900
  14306 H22         5.3200   64.9700   61.6900 hc      1590 PP       0.001900
  14307 H1          6.9700   65.6200   63.0300 hc      1590 PP       0.001800
  14308 HB1         6.8600   67.2300   60.9600 hc      1590 PP       0.063200
  14309 HB2         6.0900   68.3600   62.0200 hc      1590 PP       0.063200
  14310 HB3         7.7800   67.7500   62.4800 hc      1590 PP       0.063200
  14311 C2         50.9000   37.0400   55.2600 c3      1591 PP      -0.006100
  14312 C1         51.0500   38.4900   55.8500 c3      1591 PP       0.076800
  14313 CB         51.1800   38.5000   57.3900 c3      1591 PP      -0.265900
  14314 H21        49.9800   36.5700   55.6200 hc      1591 PP       0.001900
  14315 H22        51.8000   36.4600   55.5400 hc      1591 PP       0.001900
  14316 H1         50.0800   38.9700   55.6300 hc      1591 PP       0.001800
  14317 HB1        50.7800   39.4600   57.7500 hc      1591 PP       0.063200
  14318 HB2        50.3900   37.8700   57.8100 hc      1591 PP       0.063200
  14319 HB3        52.1800   38.2600   57.7800 hc      1591 PP       0.063200
  14320 C2         52.2000   39.2500   55.1600 c3      1592 PP      -0.006100
  14321 C1         51.8800   39.6800   53.6200 c3      1592 PP       0.076800
  14322 CB         50.9200   40.8400   53.6400 c3      1592 PP      -0.265900
  14323 H21        52.3400   40.2000   55.7000 hc      1592 PP       0.001900
  14324 H22        53.1200   38.6500   55.2000 hc      1592 PP       0.001900
  14325 H1         51.4100   38.8300   53.0900 hc      1592 PP       0.001800
  14326 HB1        49.9800   40.6000   54.1600 hc      1592 PP       0.063200
  14327 HB2        51.2900   41.7700   54.0800 hc      1592 PP       0.063200
  14328 HB3        50.6200   41.1500   52.6400 hc      1592 PP       0.063200
  14329 C2         53.1900   40.1100   52.8400 c3      1593 PP      -0.006100
  14330 C1         53.2500   39.6000   51.4300 c3      1593 PP       0.076800
  14331 CB         52.0600   39.8700   50.4500 c3      1593 PP      -0.265900
  14332 H21        53.3900   41.1900   52.7900 hc      1593 PP       0.001900
  14333 H22        53.8900   39.5700   53.4900 hc      1593 PP       0.001900
  14334 H1         53.1400   38.5100   51.4000 hc      1593 PP       0.001800
  14335 HB1        52.1700   39.1500   49.6300 hc      1593 PP       0.063200
  14336 HB2        51.1000   39.6600   50.9300 hc      1593 PP       0.063200
  14337 HB3        52.0600   40.9000   50.0800 hc      1593 PP       0.063200
  14338 C2         54.6200   39.9300   50.6800 c3      1594 PP      -0.006100
  14339 C1         55.7400   38.8100   50.8500 c3      1594 PP       0.076800
  14340 CB         55.2600   37.4800   50.1900 c3      1594 PP      -0.265900
  14341 H21        54.4200   40.2000   49.6300 hc      1594 PP       0.001900
  14342 H22        54.9900   40.9000   51.0400 hc      1594 PP       0.001900
  14343 H1         55.8400   38.5800   51.9100 hc      1594 PP       0.001800
  14344 HB1        56.1100   36.8200   49.9400 hc      1594 PP       0.063200
  14345 HB2        54.6600   36.9500   50.9400 hc      1594 PP       0.063200
  14346 HB3        54.7800   37.7900   49.2500 hc      1594 PP       0.063200
  14347 C2         57.1300   39.2800   50.3400 c3      1595 PP      -0.006100
  14348 C1         57.7500   40.5000   51.1700 c3      1595 PP       0.076800
  14349 CB         57.9200   40.0900   52.6800 c3      1595 PP      -0.265900
  14350 H21        57.8800   38.4800   50.4000 hc      1595 PP       0.001900
  14351 H22        57.1200   39.5500   49.2800 hc      1595 PP       0.001900
  14352 H1         57.1400   41.4100   51.0500 hc      1595 PP       0.001800
  14353 HB1        58.5500   40.7200   53.3200 hc      1595 PP       0.063200
  14354 HB2        56.9400   40.1000   53.1800 hc      1595 PP       0.063200
  14355 HB3        58.3100   39.0800   52.8200 hc      1595 PP       0.063200
  14356 C2         59.0800   40.8500   50.4500 c3      1596 PP      -0.006100
  14357 C1         59.8500   42.0200   51.0800 c3      1596 PP       0.076800
  14358 CB         61.1100   42.3300   50.2500 c3      1596 PP      -0.265900
  14359 H21        59.7700   40.0100   50.5300 hc      1596 PP       0.001900
  14360 H22        59.0800   41.2400   49.4200 hc      1596 PP       0.001900
  14361 H1         60.1900   41.6200   52.0500 hc      1596 PP       0.001800
  14362 HB1        61.7000   41.4300   50.0800 hc      1596 PP       0.063200
  14363 HB2        60.7600   42.8600   49.3500 hc      1596 PP       0.063200
  14364 HB3        61.7800   43.0700   50.7100 hc      1596 PP       0.063200
  14365 C2         59.0400   43.3900   51.1600 c3      1597 PP      -0.006100
  14366 C1         58.3200   43.6800   52.5300 c3      1597 PP       0.076800
  14367 CB         59.3500   44.0100   53.7000 c3      1597 PP      -0.265900
  14368 H21        59.7200   44.2500   51.0600 hc      1597 PP       0.001900
  14369 H22        58.3500   43.4500   50.3100 hc      1597 PP       0.001900
  14370 H1         57.8500   42.7500   52.8700 hc      1597 PP       0.001800
  14371 HB1        58.8400   44.3300   54.6100 hc      1597 PP       0.063200
  14372 HB2        59.9900   43.1500   53.9100 hc      1597 PP       0.063200
  14373 HB3        60.0000   44.8300   53.3700 hc      1597 PP       0.063200
  14374 C2         57.3800   44.8900   52.4800 c3      1598 PP      -0.006100
  14375 C1         56.1200   44.7600   51.6600 c3      1598 PP       0.076800
  14376 CB         55.2600   43.5900   52.2600 c3      1598 PP      -0.265900
  14377 H21        57.1000   45.0800   53.5200 hc      1598 PP       0.001900
  14378 H22        57.9600   45.7700   52.1900 hc      1598 PP       0.001900
  14379 H1         56.3900   44.4600   50.6400 hc      1598 PP       0.001800
  14380 HB1        54.8600   43.9800   53.2000 hc      1598 PP       0.063200
  14381 HB2        54.4500   43.4200   51.5400 hc      1598 PP       0.063200
  14382 HB3        55.7300   42.6100   52.4300 hc      1598 PP       0.063200
  14383 C2         55.2400   46.0500   51.5000 c3      1599 PP      -0.006100
  14384 C1         56.0300   47.2800   51.0400 c3      1599 PP       0.076800
  14385 CB         57.0100   46.9800   49.8300 c3      1599 PP      -0.265900
  14386 H21        54.4100   45.8400   50.8200 hc      1599 PP       0.001900
  14387 H22        54.7000   46.2300   52.4400 hc      1599 PP       0.001900
  14388 H1         56.5900   47.6700   51.9000 hc      1599 PP       0.001800
  14389 HB1        56.6700   46.2100   49.1300 hc      1599 PP       0.063200
  14390 HB2        57.2300   47.9100   49.2800 hc      1599 PP       0.063200
  14391 HB3        57.9800   46.5400   50.1000 hc      1599 PP       0.063200
  14392 C2         55.0200   48.3900   50.5900 c3      1600 PP      -0.006100
  14393 C1         55.2700   49.7800   51.2800 c3      1600 PP       0.076800
  14394 CB         54.7100   50.9700   50.4300 c3      1600 PP      -0.265900
  14395 H21        55.0900   48.4700   49.5000 hc      1600 PP       0.001900
  14396 H22        53.9500   48.1600   50.6700 hc      1600 PP       0.001900
  14397 H1         56.3500   49.9400   51.2400 hc      1600 PP       0.001800
  14398 HB1        54.4100   51.8900   50.9400 hc      1600 PP       0.063200
  14399 HB2        55.5100   51.3300   49.7700 hc      1600 PP       0.063200
  14400 HB3        53.8300   50.7100   49.8300 hc      1600 PP       0.063200
  14401 C2         54.7200   49.8000   52.7700 c3      1601 PP      -0.006100
  14402 C1         55.7000   49.5900   53.9200 c3      1601 PP       0.076800
  14403 CB         56.9500   50.5900   53.8300 c3      1601 PP      -0.265900
  14404 H21        54.1500   50.7100   53.0100 hc      1601 PP       0.001900
  14405 H22        54.0300   48.9500   52.8700 hc      1601 PP       0.001900
  14406 H1         55.9700   48.5400   53.7900 hc      1601 PP       0.001800
  14407 HB1        56.6300   51.6400   53.7500 hc      1601 PP       0.063200
  14408 HB2        57.6000   50.4200   54.6900 hc      1601 PP       0.063200
  14409 HB3        57.5800   50.4500   52.9400 hc      1601 PP       0.063200
  14410 C2         54.9400   49.7900   55.2900 c3      1602 PP      -0.006100
  14411 C1         55.2100   48.7600   56.3000 c3      1602 PP       0.076800
  14412 CB         55.0600   47.2700   55.8300 c3      1602 PP      -0.265900
  14413 H21        55.1000   50.7900   55.7100 hc      1602 PP       0.001900
  14414 H22        53.8700   49.6700   55.1100 hc      1602 PP       0.001900
  14415 H1         54.4000   48.9000   57.0200 hc      1602 PP       0.001800
  14416 HB1        54.2700   47.1400   55.0800 hc      1602 PP       0.063200
  14417 HB2        56.0000   46.8300   55.4900 hc      1602 PP       0.063200
  14418 HB3        54.4400   46.7700   56.5900 hc      1602 PP       0.063200
  14419 C2         56.5400   48.9200   57.0300 c3      1603 PP      -0.006100
  14420 C1         56.7100   50.2900   57.8200 c3      1603 PP       0.076800
  14421 CB         55.4000   50.6800   58.6100 c3      1603 PP      -0.265900
  14422 H21        56.6800   48.0800   57.7200 hc      1603 PP       0.001900
  14423 H22        57.3700   49.0100   56.3300 hc      1603 PP       0.001900
  14424 H1         56.8700   51.0400   57.0300 hc      1603 PP       0.001800
  14425 HB1        55.4700   51.6400   59.1400 hc      1603 PP       0.063200
  14426 HB2        54.4800   50.7500   58.0200 hc      1603 PP       0.063200
  14427 HB3        55.1300   49.8500   59.2700 hc      1603 PP       0.063200
  14428 C2         57.9500   50.2500   58.8000 c3      1604 PP      -0.006100
  14429 C1         59.2300   50.9200   58.3400 c3      1604 PP       0.076800
  14430 CB         59.8100   50.0500   57.1500 c3      1604 PP      -0.265900
  14431 H21        57.6700   50.8200   59.7000 hc      1604 PP       0.001900
  14432 H22        58.2200   49.2100   59.0000 hc      1604 PP       0.001900
  14433 H1         59.9000   50.7700   59.2000 hc      1604 PP       0.001800
  14434 HB1        60.8600   50.3000   56.9500 hc      1604 PP       0.063200
  14435 HB2        59.7200   48.9800   57.3800 hc      1604 PP       0.063200
  14436 HB3        59.2200   50.3300   56.2700 hc      1604 PP       0.063200
  14437 C2         59.0500   52.5100   58.1100 c3      1605 PP      -0.006100
  14438 C1         60.3300   53.1700   57.4600 c3      1605 PP       0.076800
  14439 CB         60.3900   53.2100   55.8700 c3      1605 PP      -0.265900
  14440 H21        58.0900   52.6700   57.6000 hc      1605 PP       0.001900
  14441 H22        58.9200   53.0100   59.0800 hc      1605 PP       0.001900
  14442 H1         61.1800   52.5400   57.7400 hc      1605 PP       0.001800
  14443 HB1        60.3900   52.2200   55.4000 hc      1605 PP       0.063200
  14444 HB2        59.6100   53.8000   55.3700 hc      1605 PP       0.063200
  14445 HB3        61.3600   53.6800   55.6900 hc      1605 PP       0.063200
  14446 C2         60.7800   54.5200   58.2700 c3      1606 PP      -0.006100
  14447 C1         59.9900   55.8400   58.0100 c3      1606 PP       0.076800
  14448 CB         59.9000   56.6700   59.3300 c3      1606 PP      -0.265900
  14449 H21        60.8100   54.3300   59.3500 hc      1606 PP       0.001900
  14450 H22        61.7800   54.8100   57.9400 hc      1606 PP       0.001900
  14451 H1         58.9800   55.4700   57.8100 hc      1606 PP       0.001800
  14452 HB1        60.8300   57.1100   59.7100 hc      1606 PP       0.063200
  14453 HB2        59.3000   57.5800   59.1600 hc      1606 PP       0.063200
  14454 HB3        59.3000   56.0500   60.0100 hc      1606 PP       0.063200
  14455 C2         60.4200   56.7200   56.8100 c3      1607 PP      -0.006100
  14456 C1         61.8200   57.4200   57.0300 c3      1607 PP       0.076800
  14457 CB         62.7300   57.2400   55.7900 c3      1607 PP      -0.265900
  14458 H21        60.4600   56.0500   55.9400 hc      1607 PP       0.001900
  14459 H22        59.6000   57.4400   56.7000 hc      1607 PP       0.001900
  14460 H1         62.4100   57.0400   57.8700 hc      1607 PP       0.001800
  14461 HB1        62.0900   57.5200   54.9400 hc      1607 PP       0.063200
  14462 HB2        63.5600   57.9500   55.7600 hc      1607 PP       0.063200
  14463 HB3        63.0700   56.2000   55.7800 hc      1607 PP       0.063200
  14464 C2         61.6100   58.9400   57.2900 c3      1608 PP      -0.006100
  14465 C1         62.8400   59.8100   57.7500 c3      1608 PP       0.076800
  14466 CB         62.4900   61.3000   58.0300 c3      1608 PP      -0.265900
  14467 H21        61.1800   59.4200   56.4000 hc      1608 PP       0.001900
  14468 H22        60.8400   59.0400   58.0700 hc      1608 PP       0.001900
  14469 H1         63.5700   59.8600   56.9300 hc      1608 PP       0.001800
  14470 HB1        61.9100   61.3600   58.9600 hc      1608 PP       0.063200
  14471 HB2        63.4800   61.7600   58.1400 hc      1608 PP       0.063200
  14472 HB3        61.8700   61.8100   57.2800 hc      1608 PP       0.063200
  14473 C2         63.5700   59.1000   58.9500 c3      1609 PP      -0.006100
  14474 C1         64.7400   58.1000   58.5800 c3      1609 PP       0.076800
  14475 CB         66.0000   58.9600   58.1900 c3      1609 PP      -0.265900
  14476 H21        63.9900   59.8000   59.6800 hc      1609 PP       0.001900
  14477 H22        62.7100   58.7000   59.5100 hc      1609 PP       0.001900
  14478 H1         64.4500   57.4200   57.7700 hc      1609 PP       0.001800
  14479 HB1        65.7100   59.5900   57.3400 hc      1609 PP       0.063200
  14480 HB2        66.3400   59.6000   59.0200 hc      1609 PP       0.063200
  14481 HB3        66.8300   58.3300   57.8700 hc      1609 PP       0.063200
  14482 C2         65.0900   57.1500   59.8200 c3      1610 PP      -0.006100
  14483 C1         64.2200   55.7700   59.8800 c3      1610 PP       0.076800
  14484 CB         64.6100   54.8700   58.6900 c3      1610 PP      -0.265900
  14485 H21        66.1600   56.9300   59.8600 hc      1610 PP       0.001900
  14486 H22        64.9300   57.7400   60.7300 hc      1610 PP       0.001900
  14487 H1         63.1400   55.9700   59.8900 hc      1610 PP       0.001800
  14488 HB1        65.5700   54.4100   58.9500 hc      1610 PP       0.063200
  14489 HB2        63.8100   54.1100   58.7100 hc      1610 PP       0.063200
  14490 HB3        64.6500   55.3600   57.7200 hc      1610 PP       0.063200
  14491 C2         64.4700   54.9600   61.2300 c3      1611 PP      -0.006100
  14492 C1         64.0400   55.7200   62.5400 c3      1611 PP       0.076800
  14493 CB         62.5600   56.0900   62.4700 c3      1611 PP      -0.265900
  14494 H21        63.8100   54.0900   61.1500 hc      1611 PP       0.001900
  14495 H22        65.5500   54.7400   61.2400 hc      1611 PP       0.001900
  14496 H1         64.7100   56.5800   62.6900 hc      1611 PP       0.001800
  14497 HB1        62.1100   55.1300   62.1900 hc      1611 PP       0.063200
  14498 HB2        62.1200   56.5100   63.3900 hc      1611 PP       0.063200
  14499 HB3        62.1900   56.8300   61.7500 hc      1611 PP       0.063200
  14500 C2         64.4400   54.8800   63.8400 c3      1612 PP      -0.006100
  14501 C1         64.0800   55.6000   65.2300 c3      1612 PP       0.076800
  14502 CB         64.0700   54.6800   66.4800 c3      1612 PP      -0.265900
  14503 H21        63.8600   53.9600   63.7100 hc      1612 PP       0.001900
  14504 H22        65.4500   54.4500   63.8300 hc      1612 PP       0.001900
  14505 H1         63.0900   56.0500   65.1600 hc      1612 PP       0.001800
  14506 HB1        64.9200   53.9800   66.4700 hc      1612 PP       0.063200
  14507 HB2        64.1200   55.2400   67.4300 hc      1612 PP       0.063200
  14508 HB3        63.1900   54.0400   66.5100 hc      1612 PP       0.063200
  14509 C2         65.1300   56.8000   65.4600 c3      1613 PP      -0.006100
  14510 C1         64.4200   58.1900   65.4900 c3      1613 PP       0.076800
  14511 CB         63.4400   58.2900   66.7100 c3      1613 PP      -0.265900
  14512 H21        65.7300   56.5500   66.3400 hc      1613 PP       0.001900
  14513 H22        65.7000   56.7500   64.5200 hc      1613 PP       0.001900
  14514 H1         63.9900   58.3800   64.5000 hc      1613 PP       0.001800
  14515 HB1        63.2200   59.3500   66.8900 hc      1613 PP       0.063200
  14516 HB2        62.4700   57.8100   66.5300 hc      1613 PP       0.063200
  14517 HB3        63.8500   57.9100   67.6500 hc      1613 PP       0.063200
  14518 C2         65.4300   59.4000   65.7400 c3      1614 PP      -0.006100
  14519 C1         66.5400   59.5800   64.6200 c3      1614 PP       0.076800
  14520 CB         66.0300   60.0500   63.2400 c3      1614 PP      -0.265900
  14521 H21        64.7800   60.2900   65.7800 hc      1614 PP       0.001900
  14522 H22        65.9500   59.1900   66.6800 hc      1614 PP       0.001900
  14523 H1         66.8800   58.5600   64.4100 hc      1614 PP       0.001800
  14524 HB1        65.2400   59.3700   62.9000 hc      1614 PP       0.063200
  14525 HB2        65.6300   61.0700   63.3100 hc      1614 PP       0.063200
  14526 HB3        66.7800   59.9700   62.4400 hc      1614 PP       0.063200
  14527 C2         67.7700   60.5000   64.9800 c3      1615 PP      -0.006100
  14528 C1         68.5400   60.1800   66.2200 c3      1615 PP       0.076800
  14529 CB         68.8800   58.6700   66.4400 c3      1615 PP      -0.265900
  14530 H21        68.4500   60.3400   64.1300 hc      1615 PP       0.001900
  14531 H22        67.4900   61.5600   65.0700 hc      1615 PP       0.001900
  14532 H1         67.9100   60.4100   67.1000 hc      1615 PP       0.001800
  14533 HB1        68.0000   58.0200   66.5900 hc      1615 PP       0.063200
  14534 HB2        69.4800   58.2000   65.6500 hc      1615 PP       0.063200
  14535 HB3        69.4500   58.5600   67.3700 hc      1615 PP       0.063200
  14536 C2         69.8600   61.1500   66.3100 c3      1616 PP      -0.006100
  14537 C1         69.7000   62.7600   66.1400 c3      1616 PP       0.076800
  14538 CB         68.6800   63.1800   67.2600 c3      1616 PP      -0.265900
  14539 H21        70.3600   60.9500   67.2600 hc      1616 PP       0.001900
  14540 H22        70.4900   60.8500   65.4700 hc      1616 PP       0.001900
  14541 H1         69.2300   62.9200   65.1600 hc      1616 PP       0.001800
  14542 HB1        69.1000   62.9300   68.2400 hc      1616 PP       0.063200
  14543 HB2        68.6000   64.2700   67.2800 hc      1616 PP       0.063200
  14544 HB3        67.6700   62.7700   67.2400 hc      1616 PP       0.063200
  14545 C2         71.0300   63.5100   66.2100 c3      1617 PP      -0.006100
  14546 C1         72.1300   63.0600   65.1900 c3      1617 PP       0.076800
  14547 CB         71.6200   63.3400   63.7500 c3      1617 PP      -0.265900
  14548 H21        70.8900   64.5800   66.0600 hc      1617 PP       0.001900
  14549 H22        71.3600   63.4600   67.2500 hc      1617 PP       0.001900
  14550 H1         72.2000   61.9700   65.0700 hc      1617 PP       0.001800
  14551 HB1        72.4700   63.2400   63.0700 hc      1617 PP       0.063200
  14552 HB2        70.8900   62.5500   63.5400 hc      1617 PP       0.063200
  14553 HB3        71.2600   64.3700   63.5900 hc      1617 PP       0.063200
  14554 C2         73.5700   63.6100   65.4400 c3      1618 PP      -0.006100
  14555 C1         74.0000   65.0500   65.0400 c3      1618 PP       0.076800
  14556 CB         73.5800   66.1500   66.1100 c3      1618 PP      -0.265900
  14557 H21        73.7800   63.4300   66.5000 hc      1618 PP       0.001900
  14558 H22        74.2800   62.9700   64.8900 hc      1618 PP       0.001900
  14559 H1         73.5200   65.2900   64.0900 hc      1618 PP       0.001800
  14560 HB1        74.1000   67.1100   66.0200 hc      1618 PP       0.063200
  14561 HB2        72.5100   66.3800   65.9400 hc      1618 PP       0.063200
  14562 HB3        73.8100   65.8400   67.1300 hc      1618 PP       0.063200
  14563 C2         75.5200   65.1500   64.6800 c3      1619 PP      -0.006100
  14564 C1         76.5400   65.1200   65.9400 c3      1619 PP       0.076800
  14565 CB         76.4400   63.8800   66.8600 c3      1619 PP      -0.265900
  14566 H21        75.7600   64.3000   64.0300 hc      1619 PP       0.001900
  14567 H22        75.7700   66.0800   64.1500 hc      1619 PP       0.001900
  14568 H1         76.2700   65.9600   66.5900 hc      1619 PP       0.001800
  14569 HB1        77.3600   63.8500   67.4600 hc      1619 PP       0.063200
  14570 HB2        75.6800   64.0300   67.6300 hc      1619 PP       0.063200
  14571 HB3        76.3700   62.9800   66.2400 hc      1619 PP       0.063200
  14572 C2         78.0100   65.4200   65.5900 c3      1620 PP      -0.006100
  14573 C1         78.7400   66.2000   66.6700 c3      1620 PP       0.076800
  14574 CB         80.1700   66.6200   66.2200 c3      1620 PP      -0.265900
  14575 H21        78.1000   65.9300   64.6200 hc      1620 PP       0.001900
  14576 H22        78.4800   64.4300   65.6000 hc      1620 PP       0.001900
  14577 H1         78.8300   65.6900   67.6400 hc      1620 PP       0.001800
  14578 HB1        80.8400   65.7600   66.3300 hc      1620 PP       0.063200
  14579 HB2        80.3200   67.1300   65.2700 hc      1620 PP       0.063200
  14580 HB3        80.5200   67.2700   67.0300 hc      1620 PP       0.063200
  14581 C2         31.2600   33.2700   67.1600 c3      1621 PP      -0.006100
  14582 C1         32.5300   33.5500   66.4000 c3      1621 PP       0.076800
  14583 CB         32.9800   35.0100   66.6900 c3      1621 PP      -0.265900
  14584 H21        30.5000   33.9000   66.6800 hc      1621 PP       0.001900
  14585 H22        31.0400   32.2000   67.0600 hc      1621 PP       0.001900
  14586 H1         32.4500   33.4400   65.3100 hc      1621 PP       0.001800
  14587 HB1        32.9400   35.2500   67.7600 hc      1621 PP       0.063200
  14588 HB2        33.9800   35.1800   66.2800 hc      1621 PP       0.063200
  14589 HB3        32.2200   35.7100   66.3300 hc      1621 PP       0.063200
  14590 C2         33.7000   32.5400   66.7800 c3      1622 PP      -0.006100
  14591 C1         33.7900   31.3000   65.9400 c3      1622 PP       0.076800
  14592 CB         34.2900   31.6200   64.5800 c3      1622 PP      -0.265900
  14593 H21        34.7200   32.9500   66.7800 hc      1622 PP       0.001900
  14594 H22        33.5200   32.1500   67.7900 hc      1622 PP       0.001900
  14595 H1         32.7600   31.0100   65.7300 hc      1622 PP       0.001800
  14596 HB1        34.5000   32.7000   64.5900 hc      1622 PP       0.063200
  14597 HB2        35.2500   31.1700   64.3200 hc      1622 PP       0.063200
  14598 HB3        33.6100   31.4000   63.7500 hc      1622 PP       0.063200
  14599 C2         34.5100   30.2300   66.7200 c3      1623 PP      -0.006100
  14600 C1         34.7100   28.8800   65.9200 c3      1623 PP       0.076800
  14601 CB         35.8700   28.1400   66.6100 c3      1623 PP      -0.265900
  14602 H21        35.4500   30.6600   67.0800 hc      1623 PP       0.001900
  14603 H22        34.0400   29.9700   67.6700 hc      1623 PP       0.001900
  14604 H1         34.8500   29.1600   64.8600 hc      1623 PP       0.001800
  14605 HB1        36.3500   27.4400   65.9100 hc      1623 PP       0.063200
  14606 HB2        36.5900   28.8800   66.9700 hc      1623 PP       0.063200
  14607 HB3        35.5800   27.5300   67.4800 hc      1623 PP       0.063200
  14608 C2         33.4000   28.0100   66.0100 c3      1624 PP      -0.006100
  14609 C1         33.1500   27.0200   64.8000 c3      1624 PP       0.076800
  14610 CB         32.9100   27.7700   63.5200 c3      1624 PP      -0.265900
  14611 H21        33.3200   27.5100   66.9800 hc      1624 PP       0.001900
  14612 H22        32.5100   28.6400   66.1000 hc      1624 PP       0.001900
  14613 H1         32.1600   26.6200   65.0500 hc      1624 PP       0.001800
  14614 HB1        32.0300   28.3900   63.7500 hc      1624 PP       0.063200
  14615 HB2        33.7100   28.5000   63.3600 hc      1624 PP       0.063200
  14616 HB3        32.8700   27.1100   62.6400 hc      1624 PP       0.063200
  14617 C2         34.2300   25.8700   64.5700 c3      1625 PP      -0.006100
  14618 C1         34.7400   24.9000   65.7300 c3      1625 PP       0.076800
  14619 CB         33.4400   24.3100   66.3600 c3      1625 PP      -0.265900
  14620 H21        33.9700   25.2700   63.6900 hc      1625 PP       0.001900
  14621 H22        35.0800   26.4200   64.1400 hc      1625 PP       0.001900
  14622 H1         35.2000   25.5200   66.5100 hc      1625 PP       0.001800
  14623 HB1        32.7900   25.1200   66.7200 hc      1625 PP       0.063200
  14624 HB2        32.8500   23.6200   65.7300 hc      1625 PP       0.063200
  14625 HB3        33.5700   23.7200   67.2700 hc      1625 PP       0.063200
  14626 C2         35.9300   23.9700   65.3100 c3      1626 PP      -0.006100
  14627 C1         36.6200   23.0800   66.4000 c3      1626 PP       0.076800
  14628 CB         35.7900   21.7800   66.6500 c3      1626 PP      -0.265900
  14629 H21        35.5800   23.4400   64.4100 hc      1626 PP       0.001900
  14630 H22        36.6400   24.6800   64.8900 hc      1626 PP       0.001900
  14631 H1         36.7000   23.7300   67.2800 hc      1626 PP       0.001800
  14632 HB1        36.3700   21.1100   67.3000 hc      1626 PP       0.063200
  14633 HB2        34.8100   22.1000   67.0500 hc      1626 PP       0.063200
  14634 HB3        35.5300   21.1800   65.7700 hc      1626 PP       0.063200
  14635 C2         37.9900   22.6200   65.8400 c3      1627 PP      -0.006100
  14636 C1         39.0600   23.8000   65.8800 c3      1627 PP       0.076800
  14637 CB         39.1200   24.6800   67.1500 c3      1627 PP      -0.265900
  14638 H21        38.3100   21.6900   66.3200 hc      1627 PP       0.001900
  14639 H22        37.8700   22.2600   64.8100 hc      1627 PP       0.001900
  14640 H1         38.7100   24.4300   65.0600 hc      1627 PP       0.001800
  14641 HB1        38.3300   25.4300   67.0400 hc      1627 PP       0.063200
  14642 HB2        39.0700   24.1500   68.1100 hc      1627 PP       0.063200
  14643 HB3        40.0200   25.3000   67.1700 hc      1627 PP       0.063200
  14644 C2         40.4400   23.3500   65.3700 c3      1628 PP      -0.006100
  14645 C1         41.3700   22.5700   66.3800 c3      1628 PP       0.076800
  14646 CB         40.9500   21.0900   66.6600 c3      1628 PP      -0.265900
  14647 H21        40.2900   22.6300   64.5500 hc      1628 PP       0.001900
  14648 H22        40.9900   24.2100   64.9800 hc      1628 PP       0.001900
  14649 H1         41.2800   23.0900   67.3400 hc      1628 PP       0.001800
  14650 HB1        40.9900   20.4200   65.7900 hc      1628 PP       0.063200
  14651 HB2        41.6900   20.6200   67.3300 hc      1628 PP       0.063200
  14652 HB3        40.0200   20.9300   67.2200 hc      1628 PP       0.063200
  14653 C2         42.8900   22.5800   65.8200 c3      1629 PP      -0.006100
  14654 C1         43.6100   23.9200   65.6000 c3      1629 PP       0.076800
  14655 CB         43.6400   24.6600   66.9500 c3      1629 PP      -0.265900
  14656 H21        43.4800   21.8800   66.4300 hc      1629 PP       0.001900
  14657 H22        42.8400   22.0600   64.8600 hc      1629 PP       0.001900
  14658 H1         43.0300   24.5800   64.9500 hc      1629 PP       0.001800
  14659 HB1        44.2500   25.5500   66.7500 hc      1629 PP       0.063200
  14660 HB2        42.7200   25.0500   67.4000 hc      1629 PP       0.063200
  14661 HB3        44.1600   24.1300   67.7600 hc      1629 PP       0.063200
  14662 C2         44.9600   23.7000   64.9900 c3      1630 PP      -0.006100
  14663 C1         45.0300   23.2500   63.4700 c3      1630 PP       0.076800
  14664 CB         45.2600   24.4400   62.4700 c3      1630 PP      -0.265900
  14665 H21        45.5600   24.6200   64.9600 hc      1630 PP       0.001900
  14666 H22        45.4600   23.0300   65.7000 hc      1630 PP       0.001900
  14667 H1         44.0500   22.8300   63.1700 hc      1630 PP       0.001800
  14668 HB1        46.0800   25.0600   62.8600 hc      1630 PP       0.063200
  14669 HB2        45.4900   24.0600   61.4700 hc      1630 PP       0.063200
  14670 HB3        44.3500   25.0400   62.3200 hc      1630 PP       0.063200
  14671 C2         46.1000   22.1700   63.2700 c3      1631 PP      -0.006100
  14672 C1         45.7200   20.7300   63.6900 c3      1631 PP       0.076800
  14673 CB         44.9200   20.1300   62.5200 c3      1631 PP      -0.265900
  14674 H21        46.5200   22.1400   62.2600 hc      1631 PP       0.001900
  14675 H22        46.9100   22.3900   63.9700 hc      1631 PP       0.001900
  14676 H1         45.0500   20.8000   64.5600 hc      1631 PP       0.001800
  14677 HB1        44.7000   19.0700   62.7000 hc      1631 PP       0.063200
  14678 HB2        43.8900   20.5200   62.5400 hc      1631 PP       0.063200
  14679 HB3        45.4100   20.2000   61.5400 hc      1631 PP       0.063200
  14680 C2         46.9500   19.8600   64.0300 c3      1632 PP      -0.006100
  14681 C1         47.3700   19.8100   65.5600 c3      1632 PP       0.076800
  14682 CB         46.3700   19.0300   66.4500 c3      1632 PP      -0.265900
  14683 H21        46.6500   18.8400   63.7800 hc      1632 PP       0.001900
  14684 H22        47.7800   20.1600   63.3800 hc      1632 PP       0.001900
  14685 H1         47.3000   20.8400   65.9300 hc      1632 PP       0.001800
  14686 HB1        45.4300   19.5900   66.5800 hc      1632 PP       0.063200
  14687 HB2        46.2300   18.0100   66.0800 hc      1632 PP       0.063200
  14688 HB3        46.8100   18.8800   67.4400 hc      1632 PP       0.063200
  14689 C2         48.8400   19.3000   65.7800 c3      1633 PP      -0.006100
  14690 C1         50.0100   20.3000   65.3600 c3      1633 PP       0.076800
  14691 CB         50.1400   21.6000   66.2100 c3      1633 PP      -0.265900
  14692 H21        48.8700   19.2200   66.8700 hc      1633 PP       0.001900
  14693 H22        48.9700   18.2900   65.3800 hc      1633 PP       0.001900
  14694 H1         49.8400   20.5600   64.3100 hc      1633 PP       0.001800
  14695 HB1        50.9700   22.2500   65.9000 hc      1633 PP       0.063200
  14696 HB2        49.1900   22.1500   66.1500 hc      1633 PP       0.063200
  14697 HB3        50.2700   21.3600   67.2700 hc      1633 PP       0.063200
  14698 C2         51.4300   19.5300   65.3200 c3      1634 PP      -0.006100
  14699 C1         51.4300   18.2200   64.5600 c3      1634 PP       0.076800
  14700 CB         50.9300   18.3100   63.1000 c3      1634 PP      -0.265900
  14701 H21        52.2200   20.2300   65.0000 hc      1634 PP       0.001900
  14702 H22        51.5100   19.3300   66.4000 hc      1634 PP       0.001900
  14703 H1         50.8900   17.4300   65.1000 hc      1634 PP       0.001800
  14704 HB1        51.4500   19.0600   62.4900 hc      1634 PP       0.063200
  14705 HB2        51.0000   17.3400   62.6000 hc      1634 PP       0.063200
  14706 HB3        49.9000   18.6800   63.0300 hc      1634 PP       0.063200
  14707 C2         52.9000   17.7100   64.4200 c3      1635 PP      -0.006100
  14708 C1         53.6000   17.2800   65.7600 c3      1635 PP       0.076800
  14709 CB         52.7800   16.2600   66.4300 c3      1635 PP      -0.265900
  14710 H21        53.0200   16.9400   63.6500 hc      1635 PP       0.001900
  14711 H22        53.4700   18.5700   64.0500 hc      1635 PP       0.001900
  14712 H1         53.6900   18.1100   66.4600 hc      1635 PP       0.001800
  14713 HB1        52.6200   15.3600   65.8300 hc      1635 PP       0.063200
  14714 HB2        53.3100   15.8000   67.2800 hc      1635 PP       0.063200
  14715 HB3        51.8700   16.7500   66.8100 hc      1635 PP       0.063200
  14716 C2         55.0500   16.7200   65.5100 c3      1636 PP      -0.006100
  14717 C1         56.0100   17.7000   64.5700 c3      1636 PP       0.076800
  14718 CB         55.9100   17.4700   63.0800 c3      1636 PP      -0.265900
  14719 H21        55.5000   16.5200   66.4900 hc      1636 PP       0.001900
  14720 H22        55.0600   15.7100   65.0800 hc      1636 PP       0.001900
  14721 H1         57.0300   17.3400   64.7900 hc      1636 PP       0.001800
  14722 HB1        55.7300   16.3900   62.9800 hc      1636 PP       0.063200
  14723 HB2        55.0600   18.0000   62.6300 hc      1636 PP       0.063200
  14724 HB3        56.8800   17.6900   62.6200 hc      1636 PP       0.063200
  14725 C2         56.0000   19.2100   64.8700 c3      1637 PP      -0.006100
  14726 C1         56.3400   19.8500   66.3100 c3      1637 PP       0.076800
  14727 CB         57.7300   19.2600   66.7500 c3      1637 PP      -0.265900
  14728 H21        56.7600   19.6000   64.1800 hc      1637 PP       0.001900
  14729 H22        55.1200   19.7200   64.4700 hc      1637 PP       0.001900
  14730 H1         55.6300   19.5100   67.0700 hc      1637 PP       0.001800
  14731 HB1        57.5300   18.2300   67.0700 hc      1637 PP       0.063200
  14732 HB2        58.4900   19.3200   65.9600 hc      1637 PP       0.063200
  14733 HB3        58.1400   19.8000   67.6100 hc      1637 PP       0.063200
  14734 C2         56.3500   21.3600   66.3000 c3      1638 PP      -0.006100
  14735 C1         54.9600   22.0400   66.1100 c3      1638 PP       0.076800
  14736 CB         53.9300   21.3800   66.9800 c3      1638 PP      -0.265900
  14737 H21        56.6600   21.6800   67.3000 hc      1638 PP       0.001900
  14738 H22        56.9900   21.7900   65.5200 hc      1638 PP       0.001900
  14739 H1         54.6600   21.8800   65.0700 hc      1638 PP       0.001800
  14740 HB1        53.7300   20.3600   66.6300 hc      1638 PP       0.063200
  14741 HB2        54.2700   21.2600   68.0100 hc      1638 PP       0.063200
  14742 HB3        52.9800   21.9300   67.0100 hc      1638 PP       0.063200
  14743 C2         54.9600   23.5600   66.6100 c3      1639 PP      -0.006100
  14744 C1         53.7500   24.3600   66.0200 c3      1639 PP       0.076800
  14745 CB         53.5800   25.6100   66.9500 c3      1639 PP      -0.265900
  14746 H21        54.8600   23.5400   67.7000 hc      1639 PP       0.001900
  14747 H22        55.9300   24.0000   66.3700 hc      1639 PP       0.001900
  14748 H1         52.8400   23.8000   66.2300 hc      1639 PP       0.001800
  14749 HB1        54.3900   26.3500   66.9000 hc      1639 PP       0.063200
  14750 HB2        52.6700   26.1300   66.6300 hc      1639 PP       0.063200
  14751 HB3        53.5300   25.3500   68.0200 hc      1639 PP       0.063200
  14752 C2         53.8100   24.6700   64.4700 c3      1640 PP      -0.006100
  14753 C1         52.5200   24.3200   63.7600 c3      1640 PP       0.076800
  14754 CB         52.5900   22.8500   63.2200 c3      1640 PP      -0.265900
  14755 H21        53.9000   25.7500   64.2600 hc      1640 PP       0.001900
  14756 H22        54.6200   24.1000   63.9900 hc      1640 PP       0.001900
  14757 H1         52.7200   24.8800   62.8300 hc      1640 PP       0.001800
  14758 HB1        53.6100   22.5500   62.9600 hc      1640 PP       0.063200
  14759 HB2        52.1300   22.1200   63.9000 hc      1640 PP       0.063200
  14760 HB3        52.0300   22.8100   62.2800 hc      1640 PP       0.063200
  14761 C2         51.2000   24.8700   64.3400 c3      1641 PP      -0.006100
  14762 C1         50.1000   25.0200   63.2300 c3      1641 PP       0.076800
  14763 CB         48.7600   24.4700   63.5400 c3      1641 PP      -0.265900
  14764 H21        50.7200   24.3200   65.1500 hc      1641 PP       0.001900
  14765 H22        51.3500   25.8600   64.8000 hc      1641 PP       0.001900
  14766 H1         50.4500   24.4100   62.3900 hc      1641 PP       0.001800
  14767 HB1        48.8300   23.7500   64.3700 hc      1641 PP       0.063200
  14768 HB2        48.1200   25.2900   63.8600 hc      1641 PP       0.063200
  14769 HB3        48.2900   24.0400   62.6400 hc      1641 PP       0.063200
  14770 C2         50.0800   26.5400   62.8600 c3      1642 PP      -0.006100
  14771 C1         49.5600   26.8800   61.4000 c3      1642 PP       0.076800
  14772 CB         49.3700   28.3700   61.2500 c3      1642 PP      -0.265900
  14773 H21        49.5900   27.0800   63.6800 hc      1642 PP       0.001900
  14774 H22        51.1100   26.9200   62.9400 hc      1642 PP       0.001900
  14775 H1         48.6100   26.3800   61.1800 hc      1642 PP       0.001800
  14776 HB1        50.3400   28.8600   61.3700 hc      1642 PP       0.063200
  14777 HB2        49.0300   28.6900   60.2500 hc      1642 PP       0.063200
  14778 HB3        48.6600   28.7800   61.9800 hc      1642 PP       0.063200
  14779 C2         50.4200   26.3200   60.2500 c3      1643 PP      -0.006100
  14780 C1         49.9400   26.5900   58.8300 c3      1643 PP       0.076800
  14781 CB         50.9500   27.5100   58.0600 c3      1643 PP      -0.265900
  14782 H21        51.4200   26.6900   60.5200 hc      1643 PP       0.001900
  14783 H22        50.4800   25.2200   60.3500 hc      1643 PP       0.001900
  14784 H1         48.9900   27.1300   58.8800 hc      1643 PP       0.001800
  14785 HB1        51.8000   26.9400   57.6700 hc      1643 PP       0.063200
  14786 HB2        50.4000   27.9600   57.2300 hc      1643 PP       0.063200
  14787 HB3        51.3900   28.3600   58.6100 hc      1643 PP       0.063200
  14788 C2         49.7300   25.3100   58.0000 c3      1644 PP      -0.006100
  14789 C1         48.6700   24.1800   58.5500 c3      1644 PP       0.076800
  14790 CB         47.2200   24.7600   58.7500 c3      1644 PP      -0.265900
  14791 H21        49.3600   25.6500   57.0200 hc      1644 PP       0.001900
  14792 H22        50.6800   24.8400   57.7300 hc      1644 PP       0.001900
  14793 H1         48.9500   23.8400   59.5500 hc      1644 PP       0.001800
  14794 HB1        46.6000   24.8900   57.8400 hc      1644 PP       0.063200
  14795 HB2        46.6500   24.0000   59.3000 hc      1644 PP       0.063200
  14796 HB3        47.2000   25.7000   59.3200 hc      1644 PP       0.063200
  14797 C2         48.7300   23.0000   57.5000 c3      1645 PP      -0.006100
  14798 C1         47.7800   21.8200   57.8800 c3      1645 PP       0.076800
  14799 CB         47.9300   20.6900   56.7800 c3      1645 PP      -0.265900
  14800 H21        48.4300   23.3700   56.5100 hc      1645 PP       0.001900
  14801 H22        49.7600   22.6300   57.4400 hc      1645 PP       0.001900
  14802 H1         46.7600   22.1900   57.7700 hc      1645 PP       0.001800
  14803 HB1        49.0000   20.4800   56.6600 hc      1645 PP       0.063200
  14804 HB2        47.6000   19.7200   57.1800 hc      1645 PP       0.063200
  14805 HB3        47.4400   20.9200   55.8300 hc      1645 PP       0.063200
  14806 C2         47.9500   21.2500   59.3100 c3      1646 PP      -0.006100
  14807 C1         49.3000   20.8100   59.7700 c3      1646 PP       0.076800
  14808 CB         50.0900   21.6700   60.8000 c3      1646 PP      -0.265900
  14809 H21        47.6300   22.0700   59.9600 hc      1646 PP       0.001900
  14810 H22        47.2400   20.4400   59.5400 hc      1646 PP       0.001900
  14811 H1         49.9300   20.6900   58.8700 hc      1646 PP       0.001800
  14812 HB1        50.9000   21.0500   61.2100 hc      1646 PP       0.063200
  14813 HB2        50.5500   22.5900   60.4100 hc      1646 PP       0.063200
  14814 HB3        49.3700   21.9600   61.5700 hc      1646 PP       0.063200
  14815 C2         49.1400   19.3800   60.2700 c3      1647 PP      -0.006100
  14816 C1         48.8700   18.2000   59.2700 c3      1647 PP       0.076800
  14817 CB         50.0300   18.1200   58.2200 c3      1647 PP      -0.265900
  14818 H21        50.1000   19.2700   60.7900 hc      1647 PP       0.001900
  14819 H22        48.3800   19.3900   61.0600 hc      1647 PP       0.001900
  14820 H1         47.9200   18.4000   58.7600 hc      1647 PP       0.001800
  14821 HB1        50.0200   18.9800   57.5400 hc      1647 PP       0.063200
  14822 HB2        51.0600   17.9900   58.5600 hc      1647 PP       0.063200
  14823 HB3        49.7100   17.3900   57.4800 hc      1647 PP       0.063200
  14824 C2         48.7500   16.7900   60.0200 c3      1648 PP      -0.006100
  14825 C1         47.8500   16.5500   61.3000 c3      1648 PP       0.076800
  14826 CB         46.3900   17.0700   61.0100 c3      1648 PP      -0.265900
  14827 H21        48.3600   16.1500   59.2200 hc      1648 PP       0.001900
  14828 H22        49.7600   16.4500   60.2900 hc      1648 PP       0.001900
  14829 H1         48.2600   17.0800   62.1700 hc      1648 PP       0.001800
  14830 HB1        45.8000   16.8000   61.9000 hc      1648 PP       0.063200
  14831 HB2        46.3300   18.1600   61.0500 hc      1648 PP       0.063200
  14832 HB3        45.9300   16.5400   60.1700 hc      1648 PP       0.063200
  14833 C2         47.7500   15.0000   61.5400 c3      1649 PP      -0.006100
  14834 C1         47.3500   14.4900   62.9700 c3      1649 PP       0.076800
  14835 CB         47.4000   12.8800   62.9800 c3      1649 PP      -0.265900
  14836 H21        47.0400   14.5900   60.8100 hc      1649 PP       0.001900
  14837 H22        48.7600   14.6400   61.3100 hc      1649 PP       0.001900
  14838 H1         46.2900   14.7500   62.9900 hc      1649 PP       0.001800
  14839 HB1        48.4500   12.5900   62.8600 hc      1649 PP       0.063200
  14840 HB2        47.0900   12.4400   63.9400 hc      1649 PP       0.063200
  14841 HB3        46.6800   12.4100   62.3000 hc      1649 PP       0.063200
  14842 C2         48.1400   15.0500   64.1500 c3      1650 PP      -0.006100
  14843 C1         47.8000   14.5400   65.4900 c3      1650 PP       0.076800
  14844 CB         48.4800   15.2500   66.7000 c3      1650 PP      -0.265900
  14845 H21        48.1600   16.1500   64.1100 hc      1650 PP       0.001900
  14846 H22        49.2200   14.8400   64.1400 hc      1650 PP       0.001900
  14847 H1         46.7500   14.2700   65.6500 hc      1650 PP       0.001800
  14848 HB1        48.1500   14.6900   67.5800 hc      1650 PP       0.063200
  14849 HB2        49.5500   15.4700   66.6600 hc      1650 PP       0.063200
  14850 HB3        48.0900   16.2700   66.8400 hc      1650 PP       0.063200
@<TRIPOS>BOND
    1     2     1 1
    2     2    10 1
    3     3     2 1
    4    11    10 1
    5    11    19 1
    6    12    11 1
    7    20    19 1
    8    20    28 1
    9    21    20 1
   10    29    28 1
   11    29    37 1
   12    30    29 1
   13    38    37 1
   14    38    46 1
   15    39    38 1
   16    47    46 1
   17    47    55 1
   18    48    47 1
   19    56    55 1
   20    56    64 1
   21    57    56 1
   22    65    64 1
   23    65    73 1
   24    66    65 1
   25    74    73 1
   26    74    82 1
   27    75    74 1
   28    83    82 1
   29    83    91 1
   30    84    83 1
   31    92    91 1
   32    92   100 1
   33    93    92 1
   34   101   100 1
   35   101   109 1
   36   102   101 1
   37   110   109 1
   38   110   118 1
   39   111   110 1
   40   119   118 1
   41   119   127 1
   42   120   119 1
   43   128   127 1
   44   128   136 1
   45   129   128 1
   46   137   136 1
   47   137   145 1
   48   138   137 1
   49   146   145 1
   50   146   154 1
   51   147   146 1
   52   155   154 1
   53   155   163 1
   54   156   155 1
   55   164   163 1
   56   164   172 1
   57   165   164 1
   58   173   172 1
   59   173   181 1
   60   174   173 1
   61   182   181 1
   62   182   190 1
   63   183   182 1
   64   191   190 1
   65   191   199 1
   66   192   191 1
   67   200   199 1
   68   200   208 1
   69   201   200 1
   70   209   208 1
   71   209   217 1
   72   210   209 1
   73   218   217 1
   74   218   226 1
   75   219   218 1
   76   227   226 1
   77   227   235 1
   78   228   227 1
   79   236   235 1
   80   236   244 1
   81   237   236 1
   82   245   244 1
   83   245   253 1
   84   246   245 1
   85   254   253 1
   86   254   262 1
   87   255   254 1
   88   263   262 1
   89   264   263 1
   90   272   271 1
   91   272   280 1
   92   273   272 1
   93   281   280 1
   94   281   289 1
   95   282   281 1
   96   290   289 1
   97   290   298 1
   98   291   290 1
   99   299   298 1
  100   299   307 1
  101   300   299 1
  102   308   307 1
  103   308   316 1
  104   309   308 1
  105   317   316 1
  106   317   325 1
  107   318   317 1
  108   326   325 1
  109   326   334 1
  110   327   326 1
  111   335   334 1
  112   335   343 1
  113   336   335 1
  114   344   343 1
  115   344   352 1
  116   345   344 1
  117   353   352 1
  118   353   361 1
  119   354   353 1
  120   362   361 1
  121   362   370 1
  122   363   362 1
  123   371   370 1
  124   371   379 1
  125   372   371 1
  126   380   379 1
  127   380   388 1
  128   381   380 1
  129   389   388 1
  130   389   397 1
  131   390   389 1
  132   398   397 1
  133   398   406 1
  134   399   398 1
  135   407   406 1
  136   407   415 1
  137   408   407 1
  138   416   415 1
  139   416   424 1
  140   417   416 1
  141   425   424 1
  142   425   433 1
  143   426   425 1
  144   434   433 1
  145   434   442 1
  146   435   434 1
  147   443   442 1
  148   443   451 1
  149   444   443 1
  150   452   451 1
  151   452   460 1
  152   453   452 1
  153   461   460 1
  154   461   469 1
  155   462   461 1
  156   470   469 1
  157   470   478 1
  158   471   470 1
  159   479   478 1
  160   479   487 1
  161   480   479 1
  162   488   487 1
  163   488   496 1
  164   489   488 1
  165   497   496 1
  166   497   505 1
  167   498   497 1
  168   506   505 1
  169   506   514 1
  170   507   506 1
  171   515   514 1
  172   515   523 1
  173   516   515 1
  174   524   523 1
  175   524   532 1
  176   525   524 1
  177   533   532 1
  178   534   533 1
  179   542   541 1
  180   542   550 1
  181   543   542 1
  182   551   550 1
  183   551   559 1
  184   552   551 1
  185   560   559 1
  186   560   568 1
  187   561   560 1
  188   569   568 1
  189   569   577 1
  190   570   569 1
  191   578   577 1
  192   578   586 1
  193   579   578 1
  194   587   586 1
  195   587   595 1
  196   588   587 1
  197   596   595 1
  198   596   604 1
  199   597   596 1
  200   605   604 1
  201   605   613 1
  202   606   605 1
  203   614   613 1
  204   614   622 1
  205   615   614 1
  206   623   622 1
  207   623   631 1
  208   624   623 1
  209   632   631 1
  210   632   640 1
  211   633   632 1
  212   641   640 1
  213   641   649 1
  214   642   641 1
  215   650   649 1
  216   650   658 1
  217   651   650 1
  218   659   658 1
  219   659   667 1
  220   660   659 1
  221   668   667 1
  222   668   676 1
  223   669   668 1
  224   677   676 1
  225   677   685 1
  226   678   677 1
  227   686   685 1
  228   686   694 1
  229   687   686 1
  230   695   694 1
  231   695   703 1
  232   696   695 1
  233   704   703 1
  234   704   712 1
  235   705   704 1
  236   713   712 1
  237   713   721 1
  238   714   713 1
  239   722   721 1
  240   722   730 1
  241   723   722 1
  242   731   730 1
  243   731   739 1
  244   732   731 1
  245   740   739 1
  246   740   748 1
  247   741   740 1
  248   749   748 1
  249   749   757 1
  250   750   749 1
  251   758   757 1
  252   758   766 1
  253   759   758 1
  254   767   766 1
  255   767   775 1
  256   768   767 1
  257   776   775 1
  258   776   784 1
  259   777   776 1
  260   785   784 1
  261   785   793 1
  262   786   785 1
  263   794   793 1
  264   794   802 1
  265   795   794 1
  266   803   802 1
  267   804   803 1
  268   812   811 1
  269   812   820 1
  270   813   812 1
  271   821   820 1
  272   821   829 1
  273   822   821 1
  274   830   829 1
  275   830   838 1
  276   831   830 1
  277   839   838 1
  278   839   847 1
  279   840   839 1
  280   848   847 1
  281   848   856 1
  282   849   848 1
  283   857   856 1
  284   857   865 1
  285   858   857 1
  286   866   865 1
  287   866   874 1
  288   867   866 1
  289   875   874 1
  290   875   883 1
  291   876   875 1
  292   884   883 1
  293   884   892 1
  294   885   884 1
  295   893   892 1
  296   893   901 1
  297   894   893 1
  298   902   901 1
  299   902   910 1
  300   903   902 1
  301   911   910 1
  302   911   919 1
  303   912   911 1
  304   920   919 1
  305   920   928 1
  306   921   920 1
  307   929   928 1
  308   929   937 1
  309   930   929 1
  310   938   937 1
  311   938   946 1
  312   939   938 1
  313   947   946 1
  314   947   955 1
  315   948   947 1
  316   956   955 1
  317   956   964 1
  318   957   956 1
  319   965   964 1
  320   965   973 1
  321   966   965 1
  322   974   973 1
  323   974   982 1
  324   975   974 1
  325   983   982 1
  326   983   991 1
  327   984   983 1
  328   992   991 1
  329   992  1000 1
  330   993   992 1
  331  1001  1000 1
  332  1001  1009 1
  333  1002  1001 1
  334  1010  1009 1
  335  1010  1018 1
  336  1011  1010 1
  337  1019  1018 1
  338  1019  1027 1
  339  1020  1019 1
  340  1028  1027 1
  341  1028  1036 1
  342  1029  1028 1
  343  1037  1036 1
  344  1037  1045 1
  345  1038  1037 1
  346  1046  1045 1
  347  1046  1054 1
  348  1047  1046 1
  349  1055  1054 1
  350  1055  1063 1
  351  1056  1055 1
  352  1064  1063 1
  353  1064  1072 1
  354  1065  1064 1
  355  1073  1072 1
  356  1074  1073 1
  357  1082  1081 1
  358  1082  1090 1
  359  1083  1082 1
  360  1091  1090 1
  361  1091  1099 1
  362  1092  1091 1
  363  1100  1099 1
  364  1100  1108 1
  365  1101  1100 1
  366  1109  1108 1
  367  1109  1117 1
  368  1110  1109 1
  369  1118  1117 1
  370  1118  1126 1
  371  1119  1118 1
  372  1127  1126 1
  373  1127  1135 1
  374  1128  1127 1
  375  1136  1135 1
  376  1136  1144 1
  377  1137  1136 1
  378  1145  1144 1
  379  1145  1153 1
  380  1146  1145 1
  381  1154  1153 1
  382  1154  1162 1
  383  1155  1154 1
  384  1163  1162 1
  385  1163  1171 1
  386  1164  1163 1
  387  1172  1171 1
  388  1172  1180 1
  389  1173  1172 1
  390  1181  1180 1
  391  1181  1189 1
  392  1182  1181 1
  393  1190  1189 1
  394  1190  1198 1
  395  1191  1190 1
  396  1199  1198 1
  397  1199  1207 1
  398  1200  1199 1
  399  1208  1207 1
  400  1208  1216 1
  401  1209  1208 1
  402  1217  1216 1
  403  1217  1225 1
  404  1218  1217 1
  405  1226  1225 1
  406  1226  1234 1
  407  1227  1226 1
  408  1235  1234 1
  409  1235  1243 1
  410  1236  1235 1
  411  1244  1243 1
  412  1244  1252 1
  413  1245  1244 1
  414  1253  1252 1
  415  1253  1261 1
  416  1254  1253 1
  417  1262  1261 1
  418  1262  1270 1
  419  1263  1262 1
  420  1271  1270 1
  421  1271  1279 1
  422  1272  1271 1
  423  1280  1279 1
  424  1280  1288 1
  425  1281  1280 1
  426  1289  1288 1
  427  1289  1297 1
  428  1290  1289 1
  429  1298  1297 1
  430  1298  1306 1
  431  1299  1298 1
  432  1307  1306 1
  433  1307  1315 1
  434  1308  1307 1
  435  1316  1315 1
  436  1316  1324 1
  437  1317  1316 1
  438  1325  1324 1
  439  1325  1333 1
  440  1326  1325 1
  441  1334  1333 1
  442  1334  1342 1
  443  1335  1334 1
  444  1343  1342 1
  445  1344  1343 1
  446  1352  1351 1
  447  1352  1360 1
  448  1353  1352 1
  449  1361  1360 1
  450  1361  1369 1
  451  1362  1361 1
  452  1370  1369 1
  453  1370  1378 1
  454  1371  1370 1
  455  1379  1378 1
  456  1379  1387 1
  457  1380  1379 1
  458  1388  1387 1
  459  1388  1396 1
  460  1389  1388 1
  461  1397  1396 1
  462  1397  1405 1
  463  1398  1397 1
  464  1406  1405 1
  465  1406  1414 1
  466  1407  1406 1
  467  1415  1414 1
  468  1415  1423 1
  469  1416  1415 1
  470  1424  1423 1
  471  1424  1432 1
  472  1425  1424 1
  473  1433  1432 1
  474  1433  1441 1
  475  1434  1433 1
  476  1442  1441 1
  477  1442  1450 1
  478  1443  1442 1
  479  1451  1450 1
  480  1451  1459 1
  481  1452  1451 1
  482  1460  1459 1
  483  1460  1468 1
  484  1461  1460 1
  485  1469  1468 1
  486  1469  1477 1
  487  1470  1469 1
  488  1478  1477 1
  489  1478  1486 1
  490  1479  1478 1
  491  1487  1486 1
  492  1487  1495 1
  493  1488  1487 1
  494  1496  1495 1
  495  1496  1504 1
  496  1497  1496 1
  497  1505  1504 1
  498  1505  1513 1
  499  1506  1505 1
  500  1514  1513 1
  501  1514  1522 1
  502  1515  1514 1
  503  1523  1522 1
  504  1523  1531 1
  505  1524  1523 1
  506  1532  1531 1
  507  1532  1540 1
  508  1533  1532 1
  509  1541  1540 1
  510  1541  1549 1
  511  1542  1541 1
  512  1550  1549 1
  513  1550  1558 1
  514  1551  1550 1
  515  1559  1558 1
  516  1559  1567 1
  517  1560  1559 1
  518  1568  1567 1
  519  1568  1576 1
  520  1569  1568 1
  521  1577  1576 1
  522  1577  1585 1
  523  1578  1577 1
  524  1586  1585 1
  525  1586  1594 1
  526  1587  1586 1
  527  1595  1594 1
  528  1595  1603 1
  529  1596  1595 1
  530  1604  1603 1
  531  1604  1612 1
  532  1605  1604 1
  533  1613  1612 1
  534  1614  1613 1
  535  1622  1621 1
  536  1622  1630 1
  537  1623  1622 1
  538  1631  1630 1
  539  1631  1639 1
  540  1632  1631 1
  541  1640  1639 1
  542  1640  1648 1
  543  1641  1640 1
  544  1649  1648 1
  545  1649  1657 1
  546  1650  1649 1
  547  1658  1657 1
  548  1658  1666 1
  549  1659  1658 1
  550  1667  1666 1
  551  1667  1675 1
  552  1668  1667 1
  553  1676  1675 1
  554  1676  1684 1
  555  1677  1676 1
  556  1685  1684 1
  557  1685  1693 1
  558  1686  1685 1
  559  1694  1693 1
  560  1694  1702 1
  561  1695  1694 1
  562  1703  1702 1
  563  1703  1711 1
  564  1704  1703 1
  565  1712  1711 1
  566  1712  1720 1
  567  1713  1712 1
  568  1721  1720 1
  569  1721  1729 1
  570  1722  1721 1
  571  1730  1729 1
  572  1730  1738 1
  573  1731  1730 1
  574  1739  1738 1
  575  1739  1747 1
  576  1740  1739 1
  577  1748  1747 1
  578  1748  1756 1
  579  1749  1748 1
  580  1757  1756 1
  581  1757  1765 1
  582  1758  1757 1
  583  1766  1765 1
  584  1766  1774 1
  585  1767  1766 1
  586  1775  1774 1
  587  1775  1783 1
  588  1776  1775 1
  589  1784  1783 1
  590  1784  1792 1
  591  1785  1784 1
  592  1793  1792 1
  593  1793  1801 1
  594  1794  1793 1
  595  1802  1801 1
  596  1802  1810 1
  597  1803  1802 1
  598  1811  1810 1
  599  1811  1819 1
  600  1812  1811 1
  601  1820  1819 1
  602  1820  1828 1
  603  1821  1820 1
  604  1829  1828 1
  605  1829  1837 1
  606  1830  1829 1
  607  1838  1837 1
  608  1838  1846 1
  609  1839  1838 1
  610  1847  1846 1
  611  1847  1855 1
  612  1848  1847 1
  613  1856  1855 1
  614  1856  1864 1
  615  1857  1856 1
  616  1865  1864 1
  617  1865  1873 1
  618  1866  1865 1
  619  1874  1873 1
  620  1874  1882 1
  621  1875  1874 1
  622  1883  1882 1
  623  1884  1883 1
  624  1892  1891 1
  625  1892  1900 1
  626  1893  1892 1
  627  1901  1900 1
  628  1901  1909 1
  629  1902  1901 1
  630  1910  1909 1
  631  1910  1918 1
  632  1911  1910 1
  633  1919  1918 1
  634  1919  1927 1
  635  1920  1919 1
  636  1928  1927 1
  637  1928  1936 1
  638  1929  1928 1
  639  1937  1936 1
  640  1937  1945 1
  641  1938  1937 1
  642  1946  1945 1
  643  1946  1954 1
  644  1947  1946 1
  645  1955  1954 1
  646  1955  1963 1
  647  1956  1955 1
  648  1964  1963 1
  649  1964  1972 1
  650  1965  1964 1
  651  1973  1972 1
  652  1973  1981 1
  653  1974  1973 1
  654  1982  1981 1
  655  1982  1990 1
  656  1983  1982 1
  657  1991  1990 1
  658  1991  1999 1
  659  1992  1991 1
  660  2000  1999 1
  661  2000  2008 1
  662  2001  2000 1
  663  2009  2008 1
  664  2009  2017 1
  665  2010  2009 1
  666  2018  2017 1
  667  2018  2026 1
  668  2019  2018 1
  669  2027  2026 1
  670  2027  2035 1
  671  2028  2027 1
  672  2036  2035 1
  673  2036  2044 1
  674  2037  2036 1
  675  2045  2044 1
  676  2045  2053 1
  677  2046  2045 1
  678  2054  2053 1
  679  2054  2062 1
  680  2055  2054 1
  681  2063  2062 1
  682  2063  2071 1
  683  2064  2063 1
  684  2072  2071 1
  685  2072  2080 1
  686  2073  2072 1
  687  2081  2080 1
  688  2081  2089 1
  689  2082  2081 1
  690  2090  2089 1
  691  2090  2098 1
  692  2091  2090 1
  693  2099  2098 1
  694  2099  2107 1
  695  2100  2099 1
  696  2108  2107 1
  697  2108  2116 1
  698  2109  2108 1
  699  2117  2116 1
  700  2117  2125 1
  701  2118  2117 1
  702  2126  2125 1
  703  2126  2134 1
  704  2127  2126 1
  705  2135  2134 1
  706  2135  2143 1
  707  2136  2135 1
  708  2144  2143 1
  709  2144  2152 1
  710  2145  2144 1
  711  2153  2152 1
  712  2154  2153 1
  713  2162  2161 1
  714  2162  2170 1
  715  2163  2162 1
  716  2171  2170 1
  717  2171  2179 1
  718  2172  2171 1
  719  2180  2179 1
  720  2180  2188 1
  721  2181  2180 1
  722  2189  2188 1
  723  2189  2197 1
  724  2190  2189 1
  725  2198  2197 1
  726  2198  2206 1
  727  2199  2198 1
  728  2207  2206 1
  729  2207  2215 1
  730  2208  2207 1
  731  2216  2215 1
  732  2216  2224 1
  733  2217  2216 1
  734  2225  2224 1
  735  2225  2233 1
  736  2226  2225 1
  737  2234  2233 1
  738  2234  2242 1
  739  2235  2234 1
  740  2243  2242 1
  741  2243  2251 1
  742  2244  2243 1
  743  2252  2251 1
  744  2252  2260 1
  745  2253  2252 1
  746  2261  2260 1
  747  2261  2269 1
  748  2262  2261 1
  749  2270  2269 1
  750  2270  2278 1
  751  2271  2270 1
  752  2279  2278 1
  753  2279  2287 1
  754  2280  2279 1
  755  2288  2287 1
  756  2288  2296 1
  757  2289  2288 1
  758  2297  2296 1
  759  2297  2305 1
  760  2298  2297 1
  761  2306  2305 1
  762  2306  2314 1
  763  2307  2306 1
  764  2315  2314 1
  765  2315  2323 1
  766  2316  2315 1
  767  2324  2323 1
  768  2324  2332 1
  769  2325  2324 1
  770  2333  2332 1
  771  2333  2341 1
  772  2334  2333 1
  773  2342  2341 1
  774  2342  2350 1
  775  2343  2342 1
  776  2351  2350 1
  777  2351  2359 1
  778  2352  2351 1
  779  2360  2359 1
  780  2360  2368 1
  781  2361  2360 1
  782  2369  2368 1
  783  2369  2377 1
  784  2370  2369 1
  785  2378  2377 1
  786  2378  2386 1
  787  2379  2378 1
  788  2387  2386 1
  789  2387  2395 1
  790  2388  2387 1
  791  2396  2395 1
  792  2396  2404 1
  793  2397  2396 1
  794  2405  2404 1
  795  2405  2413 1
  796  2406  2405 1
  797  2414  2413 1
  798  2414  2422 1
  799  2415  2414 1
  800  2423  2422 1
  801  2424  2423 1
  802  2432  2431 1
  803  2432  2440 1
  804  2433  2432 1
  805  2441  2440 1
  806  2441  2449 1
  807  2442  2441 1
  808  2450  2449 1
  809  2450  2458 1
  810  2451  2450 1
  811  2459  2458 1
  812  2459  2467 1
  813  2460  2459 1
  814  2468  2467 1
  815  2468  2476 1
  816  2469  2468 1
  817  2477  2476 1
  818  2477  2485 1
  819  2478  2477 1
  820  2486  2485 1
  821  2486  2494 1
  822  2487  2486 1
  823  2495  2494 1
  824  2495  2503 1
  825  2496  2495 1
  826  2504  2503 1
  827  2504  2512 1
  828  2505  2504 1
  829  2513  2512 1
  830  2513  2521 1
  831  2514  2513 1
  832  2522  2521 1
  833  2522  2530 1
  834  2523  2522 1
  835  2531  2530 1
  836  2531  2539 1
  837  2532  2531 1
  838  2540  2539 1
  839  2540  2548 1
  840  2541  2540 1
  841  2549  2548 1
  842  2549  2557 1
  843  2550  2549 1
  844  2558  2557 1
  845  2558  2566 1
  846  2559  2558 1
  847  2567  2566 1
  848  2567  2575 1
  849  2568  2567 1
  850  2576  2575 1
  851  2576  2584 1
  852  2577  2576 1
  853  2585  2584 1
  854  2585  2593 1
  855  2586  2585 1
  856  2594  2593 1
  857  2594  2602 1
  858  2595  2594 1
  859  2603  2602 1
  860  2603  2611 1
  861  2604  2603 1
  862  2612  2611 1
  863  2612  2620 1
  864  2613  2612 1
  865  2621  2620 1
  866  2621  2629 1
  867  2622  2621 1
  868  2630  2629 1
  869  2630  2638 1
  870  2631  2630 1
  871  2639  2638 1
  872  2639  2647 1
  873  2640  2639 1
  874  2648  2647 1
  875  2648  2656 1
  876  2649  2648 1
  877  2657  2656 1
  878  2657  2665 1
  879  2658  2657 1
  880  2666  2665 1
  881  2666  2674 1
  882  2667  2666 1
  883  2675  2674 1
  884  2675  2683 1
  885  2676  2675 1
  886  2684  2683 1
  887  2684  2692 1
  888  2685  2684 1
  889  2693  2692 1
  890  2694  2693 1
  891  2702  2701 1
  892  2702  2710 1
  893  2703  2702 1
  894  2711  2710 1
  895  2711  2719 1
  896  2712  2711 1
  897  2720  2719 1
  898  2720  2728 1
  899  2721  2720 1
  900  2729  2728 1
  901  2729  2737 1
  902  2730  2729 1
  903  2738  2737 1
  904  2738  2746 1
  905  2739  2738 1
  906  2747  2746 1
  907  2747  2755 1
  908  2748  2747 1
  909  2756  2755 1
  910  2756  2764 1
  911  2757  2756 1
  912  2765  2764 1
  913  2765  2773 1
  914  2766  2765 1
  915  2774  2773 1
  916  2774  2782 1
  917  2775  2774 1
  918  2783  2782 1
  919  2783  2791 1
  920  2784  2783 1
  921  2792  2791 1
  922  2792  2800 1
  923  2793  2792 1
  924  2801  2800 1
  925  2801  2809 1
  926  2802  2801 1
  927  2810  2809 1
  928  2810  2818 1
  929  2811  2810 1
  930  2819  2818 1
  931  2819  2827 1
  932  2820  2819 1
  933  2828  2827 1
  934  2828  2836 1
  935  2829  2828 1
  936  2837  2836 1
  937  2837  2845 1
  938  2838  2837 1
  939  2846  2845 1
  940  2846  2854 1
  941  2847  2846 1
  942  2855  2854 1
  943  2855  2863 1
  944  2856  2855 1
  945  2864  2863 1
  946  2864  2872 1
  947  2865  2864 1
  948  2873  2872 1
  949  2873  2881 1
  950  2874  2873 1
  951  2882  2881 1
  952  2882  2890 1
  953  2883  2882 1
  954  2891  2890 1
  955  2891  2899 1
  956  2892  2891 1
  957  2900  2899 1
  958  2900  2908 1
  959  2901  2900 1
  960  2909  2908 1
  961  2909  2917 1
  962  2910  2909 1
  963  2918  2917 1
  964  2918  2926 1
  965  2919  2918 1
  966  2927  2926 1
  967  2927  2935 1
  968  2928  2927 1
  969  2936  2935 1
  970  2936  2944 1
  971  2937  2936 1
  972  2945  2944 1
  973  2945  2953 1
  974  2946  2945 1
  975  2954  2953 1
  976  2954  2962 1
  977  2955  2954 1
  978  2963  2962 1
  979  2964  2963 1
  980  2972  2971 1
  981  2972  2980 1
  982  2973  2972 1
  983  2981  2980 1
  984  2981  2989 1
  985  2982  2981 1
  986  2990  2989 1
  987  2990  2998 1
  988  2991  2990 1
  989  2999  2998 1
  990  2999  3007 1
  991  3000  2999 1
  992  3008  3007 1
  993  3008  3016 1
  994  3009  3008 1
  995  3017  3016 1
  996  3017  3025 1
  997  3018  3017 1
  998  3026  3025 1
  999  3026  3034 1
 1000  3027  3026 1
 1001  3035  3034 1
 1002  3035  3043 1
 1003  3036  3035 1
 1004  3044  3043 1
 1005  3044  3052 1
 1006  3045  3044 1
 1007  3053  3052 1
 1008  3053  3061 1
 1009  3054  3053 1
 1010  3062  3061 1
 1011  3062  3070 1
 1012  3063  3062 1
 1013  3071  3070 1
 1014  3071  3079 1
 1015  3072  3071 1
 1016  3080  3079 1
 1017  3080  3088 1
 1018  3081  3080 1
 1019  3089  3088 1
 1020  3089  3097 1
 1021  3090  3089 1
 1022  3098  3097 1
 1023  3098  3106 1
 1024  3099  3098 1
 1025  3107  3106 1
 1026  3107  3115 1
 1027  3108  3107 1
 1028  3116  3115 1
 1029  3116  3124 1
 1030  3117  3116 1
 1031  3125  3124 1
 1032  3125  3133 1
 1033  3126  3125 1
 1034  3134  3133 1
 1035  3134  3142 1
 1036  3135  3134 1
 1037  3143  3142 1
 1038  3143  3151 1
 1039  3144  3143 1
 1040  3152  3151 1
 1041  3152  3160 1
 1042  3153  3152 1
 1043  3161  3160 1
 1044  3161  3169 1
 1045  3162  3161 1
 1046  3170  3169 1
 1047  3170  3178 1
 1048  3171  3170 1
 1049  3179  3178 1
 1050  3179  3187 1
 1051  3180  3179 1
 1052  3188  3187 1
 1053  3188  3196 1
 1054  3189  3188 1
 1055  3197  3196 1
 1056  3197  3205 1
 1057  3198  3197 1
 1058  3206  3205 1
 1059  3206  3214 1
 1060  3207  3206 1
 1061  3215  3214 1
 1062  3215  3223 1
 1063  3216  3215 1
 1064  3224  3223 1
 1065  3224  3232 1
 1066  3225  3224 1
 1067  3233  3232 1
 1068  3234  3233 1
 1069  3242  3241 1
 1070  3242  3250 1
 1071  3243  3242 1
 1072  3251  3250 1
 1073  3251  3259 1
 1074  3252  3251 1
 1075  3260  3259 1
 1076  3260  3268 1
 1077  3261  3260 1
 1078  3269  3268 1
 1079  3269  3277 1
 1080  3270  3269 1
 1081  3278  3277 1
 1082  3278  3286 1
 1083  3279  3278 1
 1084  3287  3286 1
 1085  3287  3295 1
 1086  3288  3287 1
 1087  3296  3295 1
 1088  3296  3304 1
 1089  3297  3296 1
 1090  3305  3304 1
 1091  3305  3313 1
 1092  3306  3305 1
 1093  3314  3313 1
 1094  3314  3322 1
 1095  3315  3314 1
 1096  3323  3322 1
 1097  3323  3331 1
 1098  3324  3323 1
 1099  3332  3331 1
 1100  3332  3340 1
 1101  3333  3332 1
 1102  3341  3340 1
 1103  3341  3349 1
 1104  3342  3341 1
 1105  3350  3349 1
 1106  3350  3358 1
 1107  3351  3350 1
 1108  3359  3358 1
 1109  3359  3367 1
 1110  3360  3359 1
 1111  3368  3367 1
 1112  3368  3376 1
 1113  3369  3368 1
 1114  3377  3376 1
 1115  3377  3385 1
 1116  3378  3377 1
 1117  3386  3385 1
 1118  3386  3394 1
 1119  3387  3386 1
 1120  3395  3394 1
 1121  3395  3403 1
 1122  3396  3395 1
 1123  3404  3403 1
 1124  3404  3412 1
 1125  3405  3404 1
 1126  3413  3412 1
 1127  3413  3421 1
 1128  3414  3413 1
 1129  3422  3421 1
 1130  3422  3430 1
 1131  3423  3422 1
 1132  3431  3430 1
 1133  3431  3439 1
 1134  3432  3431 1
 1135  3440  3439 1
 1136  3440  3448 1
 1137  3441  3440 1
 1138  3449  3448 1
 1139  3449  3457 1
 1140  3450  3449 1
 1141  3458  3457 1
 1142  3458  3466 1
 1143  3459  3458 1
 1144  3467  3466 1
 1145  3467  3475 1
 1146  3468  3467 1
 1147  3476  3475 1
 1148  3476  3484 1
 1149  3477  3476 1
 1150  3485  3484 1
 1151  3485  3493 1
 1152  3486  3485 1
 1153  3494  3493 1
 1154  3494  3502 1
 1155  3495  3494 1
 1156  3503  3502 1
 1157  3504  3503 1
 1158  3512  3511 1
 1159  3512  3520 1
 1160  3513  3512 1
 1161  3521  3520 1
 1162  3521  3529 1
 1163  3522  3521 1
 1164  3530  3529 1
 1165  3530  3538 1
 1166  3531  3530 1
 1167  3539  3538 1
 1168  3539  3547 1
 1169  3540  3539 1
 1170  3548  3547 1
 1171  3548  3556 1
 1172  3549  3548 1
 1173  3557  3556 1
 1174  3557  3565 1
 1175  3558  3557 1
 1176  3566  3565 1
 1177  3566  3574 1
 1178  3567  3566 1
 1179  3575  3574 1
 1180  3575  3583 1
 1181  3576  3575 1
 1182  3584  3583 1
 1183  3584  3592 1
 1184  3585  3584 1
 1185  3593  3592 1
 1186  3593  3601 1
 1187  3594  3593 1
 1188  3602  3601 1
 1189  3602  3610 1
 1190  3603  3602 1
 1191  3611  3610 1
 1192  3611  3619 1
 1193  3612  3611 1
 1194  3620  3619 1
 1195  3620  3628 1
 1196  3621  3620 1
 1197  3629  3628 1
 1198  3629  3637 1
 1199  3630  3629 1
 1200  3638  3637 1
 1201  3638  3646 1
 1202  3639  3638 1
 1203  3647  3646 1
 1204  3647  3655 1
 1205  3648  3647 1
 1206  3656  3655 1
 1207  3656  3664 1
 1208  3657  3656 1
 1209  3665  3664 1
 1210  3665  3673 1
 1211  3666  3665 1
 1212  3674  3673 1
 1213  3674  3682 1
 1214  3675  3674 1
 1215  3683  3682 1
 1216  3683  3691 1
 1217  3684  3683 1
 1218  3692  3691 1
 1219  3692  3700 1
 1220  3693  3692 1
 1221  3701  3700 1
 1222  3701  3709 1
 1223  3702  3701 1
 1224  3710  3709 1
 1225  3710  3718 1
 1226  3711  3710 1
 1227  3719  3718 1
 1228  3719  3727 1
 1229  3720  3719 1
 1230  3728  3727 1
 1231  3728  3736 1
 1232  3729  3728 1
 1233  3737  3736 1
 1234  3737  3745 1
 1235  3738  3737 1
 1236  3746  3745 1
 1237  3746  3754 1
 1238  3747  3746 1
 1239  3755  3754 1
 1240  3755  3763 1
 1241  3756  3755 1
 1242  3764  3763 1
 1243  3764  3772 1
 1244  3765  3764 1
 1245  3773  3772 1
 1246  3774  3773 1
 1247  3782  3781 1
 1248  3782  3790 1
 1249  3783  3782 1
 1250  3791  3790 1
 1251  3791  3799 1
 1252  3792  3791 1
 1253  3800  3799 1
 1254  3800  3808 1
 1255  3801  3800 1
 1256  3809  3808 1
 1257  3809  3817 1
 1258  3810  3809 1
 1259  3818  3817 1
 1260  3818  3826 1
 1261  3819  3818 1
 1262  3827  3826 1
 1263  3827  3835 1
 1264  3828  3827 1
 1265  3836  3835 1
 1266  3836  3844 1
 1267  3837  3836 1
 1268  3845  3844 1
 1269  3845  3853 1
 1270  3846  3845 1
 1271  3854  3853 1
 1272  3854  3862 1
 1273  3855  3854 1
 1274  3863  3862 1
 1275  3863  3871 1
 1276  3864  3863 1
 1277  3872  3871 1
 1278  3872  3880 1
 1279  3873  3872 1
 1280  3881  3880 1
 1281  3881  3889 1
 1282  3882  3881 1
 1283  3890  3889 1
 1284  3890  3898 1
 1285  3891  3890 1
 1286  3899  3898 1
 1287  3899  3907 1
 1288  3900  3899 1
 1289  3908  3907 1
 1290  3908  3916 1
 1291  3909  3908 1
 1292  3917  3916 1
 1293  3917  3925 1
 1294  3918  3917 1
 1295  3926  3925 1
 1296  3926  3934 1
 1297  3927  3926 1
 1298  3935  3934 1
 1299  3935  3943 1
 1300  3936  3935 1
 1301  3944  3943 1
 1302  3944  3952 1
 1303  3945  3944 1
 1304  3953  3952 1
 1305  3953  3961 1
 1306  3954  3953 1
 1307  3962  3961 1
 1308  3962  3970 1
 1309  3963  3962 1
 1310  3971  3970 1
 1311  3971  3979 1
 1312  3972  3971 1
 1313  3980  3979 1
 1314  3980  3988 1
 1315  3981  3980 1
 1316  3989  3988 1
 1317  3989  3997 1
 1318  3990  3989 1
 1319  3998  3997 1
 1320  3998  4006 1
 1321  3999  3998 1
 1322  4007  4006 1
 1323  4007  4015 1
 1324  4008  4007 1
 1325  4016  4015 1
 1326  4016  4024 1
 1327  4017  4016 1
 1328  4025  4024 1
 1329  4025  4033 1
 1330  4026  4025 1
 1331  4034  4033 1
 1332  4034  4042 1
 1333  4035  4034 1
 1334  4043  4042 1
 1335  4044  4043 1
 1336  4052  4051 1
 1337  4052  4060 1
 1338  4053  4052 1
 1339  4061  4060 1
 1340  4061  4069 1
 1341  4062  4061 1
 1342  4070  4069 1
 1343  4070  4078 1
 1344  4071  4070 1
 1345  4079  4078 1
 1346  4079  4087 1
 1347  4080  4079 1
 1348  4088  4087 1
 1349  4088  4096 1
 1350  4089  4088 1
 1351  4097  4096 1
 1352  4097  4105 1
 1353  4098  4097 1
 1354  4106  4105 1
 1355  4106  4114 1
 1356  4107  4106 1
 1357  4115  4114 1
 1358  4115  4123 1
 1359  4116  4115 1
 1360  4124  4123 1
 1361  4124  4132 1
 1362  4125  4124 1
 1363  4133  4132 1
 1364  4133  4141 1
 1365  4134  4133 1
 1366  4142  4141 1
 1367  4142  4150 1
 1368  4143  4142 1
 1369  4151  4150 1
 1370  4151  4159 1
 1371  4152  4151 1
 1372  4160  4159 1
 1373  4160  4168 1
 1374  4161  4160 1
 1375  4169  4168 1
 1376  4169  4177 1
 1377  4170  4169 1
 1378  4178  4177 1
 1379  4178  4186 1
 1380  4179  4178 1
 1381  4187  4186 1
 1382  4187  4195 1
 1383  4188  4187 1
 1384  4196  4195 1
 1385  4196  4204 1
 1386  4197  4196 1
 1387  4205  4204 1
 1388  4205  4213 1
 1389  4206  4205 1
 1390  4214  4213 1
 1391  4214  4222 1
 1392  4215  4214 1
 1393  4223  4222 1
 1394  4223  4231 1
 1395  4224  4223 1
 1396  4232  4231 1
 1397  4232  4240 1
 1398  4233  4232 1
 1399  4241  4240 1
 1400  4241  4249 1
 1401  4242  4241 1
 1402  4250  4249 1
 1403  4250  4258 1
 1404  4251  4250 1
 1405  4259  4258 1
 1406  4259  4267 1
 1407  4260  4259 1
 1408  4268  4267 1
 1409  4268  4276 1
 1410  4269  4268 1
 1411  4277  4276 1
 1412  4277  4285 1
 1413  4278  4277 1
 1414  4286  4285 1
 1415  4286  4294 1
 1416  4287  4286 1
 1417  4295  4294 1
 1418  4295  4303 1
 1419  4296  4295 1
 1420  4304  4303 1
 1421  4304  4312 1
 1422  4305  4304 1
 1423  4313  4312 1
 1424  4314  4313 1
 1425  4322  4321 1
 1426  4322  4330 1
 1427  4323  4322 1
 1428  4331  4330 1
 1429  4331  4339 1
 1430  4332  4331 1
 1431  4340  4339 1
 1432  4340  4348 1
 1433  4341  4340 1
 1434  4349  4348 1
 1435  4349  4357 1
 1436  4350  4349 1
 1437  4358  4357 1
 1438  4358  4366 1
 1439  4359  4358 1
 1440  4367  4366 1
 1441  4367  4375 1
 1442  4368  4367 1
 1443  4376  4375 1
 1444  4376  4384 1
 1445  4377  4376 1
 1446  4385  4384 1
 1447  4385  4393 1
 1448  4386  4385 1
 1449  4394  4393 1
 1450  4394  4402 1
 1451  4395  4394 1
 1452  4403  4402 1
 1453  4403  4411 1
 1454  4404  4403 1
 1455  4412  4411 1
 1456  4412  4420 1
 1457  4413  4412 1
 1458  4421  4420 1
 1459  4421  4429 1
 1460  4422  4421 1
 1461  4430  4429 1
 1462  4430  4438 1
 1463  4431  4430 1
 1464  4439  4438 1
 1465  4439  4447 1
 1466  4440  4439 1
 1467  4448  4447 1
 1468  4448  4456 1
 1469  4449  4448 1
 1470  4457  4456 1
 1471  4457  4465 1
 1472  4458  4457 1
 1473  4466  4465 1
 1474  4466  4474 1
 1475  4467  4466 1
 1476  4475  4474 1
 1477  4475  4483 1
 1478  4476  4475 1
 1479  4484  4483 1
 1480  4484  4492 1
 1481  4485  4484 1
 1482  4493  4492 1
 1483  4493  4501 1
 1484  4494  4493 1
 1485  4502  4501 1
 1486  4502  4510 1
 1487  4503  4502 1
 1488  4511  4510 1
 1489  4511  4519 1
 1490  4512  4511 1
 1491  4520  4519 1
 1492  4520  4528 1
 1493  4521  4520 1
 1494  4529  4528 1
 1495  4529  4537 1
 1496  4530  4529 1
 1497  4538  4537 1
 1498  4538  4546 1
 1499  4539  4538 1
 1500  4547  4546 1
 1501  4547  4555 1
 1502  4548  4547 1
 1503  4556  4555 1
 1504  4556  4564 1
 1505  4557  4556 1
 1506  4565  4564 1
 1507  4565  4573 1
 1508  4566  4565 1
 1509  4574  4573 1
 1510  4574  4582 1
 1511  4575  4574 1
 1512  4583  4582 1
 1513  4584  4583 1
 1514  4592  4591 1
 1515  4592  4600 1
 1516  4593  4592 1
 1517  4601  4600 1
 1518  4601  4609 1
 1519  4602  4601 1
 1520  4610  4609 1
 1521  4610  4618 1
 1522  4611  4610 1
 1523  4619  4618 1
 1524  4619  4627 1
 1525  4620  4619 1
 1526  4628  4627 1
 1527  4628  4636 1
 1528  4629  4628 1
 1529  4637  4636 1
 1530  4637  4645 1
 1531  4638  4637 1
 1532  4646  4645 1
 1533  4646  4654 1
 1534  4647  4646 1
 1535  4655  4654 1
 1536  4655  4663 1
 1537  4656  4655 1
 1538  4664  4663 1
 1539  4664  4672 1
 1540  4665  4664 1
 1541  4673  4672 1
 1542  4673  4681 1
 1543  4674  4673 1
 1544  4682  4681 1
 1545  4682  4690 1
 1546  4683  4682 1
 1547  4691  4690 1
 1548  4691  4699 1
 1549  4692  4691 1
 1550  4700  4699 1
 1551  4700  4708 1
 1552  4701  4700 1
 1553  4709  4708 1
 1554  4709  4717 1
 1555  4710  4709 1
 1556  4718  4717 1
 1557  4718  4726 1
 1558  4719  4718 1
 1559  4727  4726 1
 1560  4727  4735 1
 1561  4728  4727 1
 1562  4736  4735 1
 1563  4736  4744 1
 1564  4737  4736 1
 1565  4745  4744 1
 1566  4745  4753 1
 1567  4746  4745 1
 1568  4754  4753 1
 1569  4754  4762 1
 1570  4755  4754 1
 1571  4763  4762 1
 1572  4763  4771 1
 1573  4764  4763 1
 1574  4772  4771 1
 1575  4772  4780 1
 1576  4773  4772 1
 1577  4781  4780 1
 1578  4781  4789 1
 1579  4782  4781 1
 1580  4790  4789 1
 1581  4790  4798 1
 1582  4791  4790 1
 1583  4799  4798 1
 1584  4799  4807 1
 1585  4800  4799 1
 1586  4808  4807 1
 1587  4808  4816 1
 1588  4809  4808 1
 1589  4817  4816 1
 1590  4817  4825 1
 1591  4818  4817 1
 1592  4826  4825 1
 1593  4826  4834 1
 1594  4827  4826 1
 1595  4835  4834 1
 1596  4835  4843 1
 1597  4836  4835 1
 1598  4844  4843 1
 1599  4844  4852 1
 1600  4845  4844 1
 1601  4853  4852 1
 1602  4854  4853 1
 1603  4862  4861 1
 1604  4862  4870 1
 1605  4863  4862 1
 1606  4871  4870 1
 1607  4871  4879 1
 1608  4872  4871 1
 1609  4880  4879 1
 1610  4880  4888 1
 1611  4881  4880 1
 1612  4889  4888 1
 1613  4889  4897 1
 1614  4890  4889 1
 1615  4898  4897 1
 1616  4898  4906 1
 1617  4899  4898 1
 1618  4907  4906 1
 1619  4907  4915 1
 1620  4908  4907 1
 1621  4916  4915 1
 1622  4916  4924 1
 1623  4917  4916 1
 1624  4925  4924 1
 1625  4925  4933 1
 1626  4926  4925 1
 1627  4934  4933 1
 1628  4934  4942 1
 1629  4935  4934 1
 1630  4943  4942 1
 1631  4943  4951 1
 1632  4944  4943 1
 1633  4952  4951 1
 1634  4952  4960 1
 1635  4953  4952 1
 1636  4961  4960 1
 1637  4961  4969 1
 1638  4962  4961 1
 1639  4970  4969 1
 1640  4970  4978 1
 1641  4971  4970 1
 1642  4979  4978 1
 1643  4979  4987 1
 1644  4980  4979 1
 1645  4988  4987 1
 1646  4988  4996 1
 1647  4989  4988 1
 1648  4997  4996 1
 1649  4997  5005 1
 1650  4998  4997 1
 1651  5006  5005 1
 1652  5006  5014 1
 1653  5007  5006 1
 1654  5015  5014 1
 1655  5015  5023 1
 1656  5016  5015 1
 1657  5024  5023 1
 1658  5024  5032 1
 1659  5025  5024 1
 1660  5033  5032 1
 1661  5033  5041 1
 1662  5034  5033 1
 1663  5042  5041 1
 1664  5042  5050 1
 1665  5043  5042 1
 1666  5051  5050 1
 1667  5051  5059 1
 1668  5052  5051 1
 1669  5060  5059 1
 1670  5060  5068 1
 1671  5061  5060 1
 1672  5069  5068 1
 1673  5069  5077 1
 1674  5070  5069 1
 1675  5078  5077 1
 1676  5078  5086 1
 1677  5079  5078 1
 1678  5087  5086 1
 1679  5087  5095 1
 1680  5088  5087 1
 1681  5096  5095 1
 1682  5096  5104 1
 1683  5097  5096 1
 1684  5105  5104 1
 1685  5105  5113 1
 1686  5106  5105 1
 1687  5114  5113 1
 1688  5114  5122 1
 1689  5115  5114 1
 1690  5123  5122 1
 1691  5124  5123 1
 1692  5132  5131 1
 1693  5132  5140 1
 1694  5133  5132 1
 1695  5141  5140 1
 1696  5141  5149 1
 1697  5142  5141 1
 1698  5150  5149 1
 1699  5150  5158 1
 1700  5151  5150 1
 1701  5159  5158 1
 1702  5159  5167 1
 1703  5160  5159 1
 1704  5168  5167 1
 1705  5168  5176 1
 1706  5169  5168 1
 1707  5177  5176 1
 1708  5177  5185 1
 1709  5178  5177 1
 1710  5186  5185 1
 1711  5186  5194 1
 1712  5187  5186 1
 1713  5195  5194 1
 1714  5195  5203 1
 1715  5196  5195 1
 1716  5204  5203 1
 1717  5204  5212 1
 1718  5205  5204 1
 1719  5213  5212 1
 1720  5213  5221 1
 1721  5214  5213 1
 1722  5222  5221 1
 1723  5222  5230 1
 1724  5223  5222 1
 1725  5231  5230 1
 1726  5231  5239 1
 1727  5232  5231 1
 1728  5240  5239 1
 1729  5240  5248 1
 1730  5241  5240 1
 1731  5249  5248 1
 1732  5249  5257 1
 1733  5250  5249 1
 1734  5258  5257 1
 1735  5258  5266 1
 1736  5259  5258 1
 1737  5267  5266 1
 1738  5267  5275 1
 1739  5268  5267 1
 1740  5276  5275 1
 1741  5276  5284 1
 1742  5277  5276 1
 1743  5285  5284 1
 1744  5285  5293 1
 1745  5286  5285 1
 1746  5294  5293 1
 1747  5294  5302 1
 1748  5295  5294 1
 1749  5303  5302 1
 1750  5303  5311 1
 1751  5304  5303 1
 1752  5312  5311 1
 1753  5312  5320 1
 1754  5313  5312 1
 1755  5321  5320 1
 1756  5321  5329 1
 1757  5322  5321 1
 1758  5330  5329 1
 1759  5330  5338 1
 1760  5331  5330 1
 1761  5339  5338 1
 1762  5339  5347 1
 1763  5340  5339 1
 1764  5348  5347 1
 1765  5348  5356 1
 1766  5349  5348 1
 1767  5357  5356 1
 1768  5357  5365 1
 1769  5358  5357 1
 1770  5366  5365 1
 1771  5366  5374 1
 1772  5367  5366 1
 1773  5375  5374 1
 1774  5375  5383 1
 1775  5376  5375 1
 1776  5384  5383 1
 1777  5384  5392 1
 1778  5385  5384 1
 1779  5393  5392 1
 1780  5394  5393 1
 1781  5402  5401 1
 1782  5402  5410 1
 1783  5403  5402 1
 1784  5411  5410 1
 1785  5411  5419 1
 1786  5412  5411 1
 1787  5420  5419 1
 1788  5420  5428 1
 1789  5421  5420 1
 1790  5429  5428 1
 1791  5429  5437 1
 1792  5430  5429 1
 1793  5438  5437 1
 1794  5438  5446 1
 1795  5439  5438 1
 1796  5447  5446 1
 1797  5447  5455 1
 1798  5448  5447 1
 1799  5456  5455 1
 1800  5456  5464 1
 1801  5457  5456 1
 1802  5465  5464 1
 1803  5465  5473 1
 1804  5466  5465 1
 1805  5474  5473 1
 1806  5474  5482 1
 1807  5475  5474 1
 1808  5483  5482 1
 1809  5483  5491 1
 1810  5484  5483 1
 1811  5492  5491 1
 1812  5492  5500 1
 1813  5493  5492 1
 1814  5501  5500 1
 1815  5501  5509 1
 1816  5502  5501 1
 1817  5510  5509 1
 1818  5510  5518 1
 1819  5511  5510 1
 1820  5519  5518 1
 1821  5519  5527 1
 1822  5520  5519 1
 1823  5528  5527 1
 1824  5528  5536 1
 1825  5529  5528 1
 1826  5537  5536 1
 1827  5537  5545 1
 1828  5538  5537 1
 1829  5546  5545 1
 1830  5546  5554 1
 1831  5547  5546 1
 1832  5555  5554 1
 1833  5555  5563 1
 1834  5556  5555 1
 1835  5564  5563 1
 1836  5564  5572 1
 1837  5565  5564 1
 1838  5573  5572 1
 1839  5573  5581 1
 1840  5574  5573 1
 1841  5582  5581 1
 1842  5582  5590 1
 1843  5583  5582 1
 1844  5591  5590 1
 1845  5591  5599 1
 1846  5592  5591 1
 1847  5600  5599 1
 1848  5600  5608 1
 1849  5601  5600 1
 1850  5609  5608 1
 1851  5609  5617 1
 1852  5610  5609 1
 1853  5618  5617 1
 1854  5618  5626 1
 1855  5619  5618 1
 1856  5627  5626 1
 1857  5627  5635 1
 1858  5628  5627 1
 1859  5636  5635 1
 1860  5636  5644 1
 1861  5637  5636 1
 1862  5645  5644 1
 1863  5645  5653 1
 1864  5646  5645 1
 1865  5654  5653 1
 1866  5654  5662 1
 1867  5655  5654 1
 1868  5663  5662 1
 1869  5664  5663 1
 1870  5672  5671 1
 1871  5672  5680 1
 1872  5673  5672 1
 1873  5681  5680 1
 1874  5681  5689 1
 1875  5682  5681 1
 1876  5690  5689 1
 1877  5690  5698 1
 1878  5691  5690 1
 1879  5699  5698 1
 1880  5699  5707 1
 1881  5700  5699 1
 1882  5708  5707 1
 1883  5708  5716 1
 1884  5709  5708 1
 1885  5717  5716 1
 1886  5717  5725 1
 1887  5718  5717 1
 1888  5726  5725 1
 1889  5726  5734 1
 1890  5727  5726 1
 1891  5735  5734 1
 1892  5735  5743 1
 1893  5736  5735 1
 1894  5744  5743 1
 1895  5744  5752 1
 1896  5745  5744 1
 1897  5753  5752 1
 1898  5753  5761 1
 1899  5754  5753 1
 1900  5762  5761 1
 1901  5762  5770 1
 1902  5763  5762 1
 1903  5771  5770 1
 1904  5771  5779 1
 1905  5772  5771 1
 1906  5780  5779 1
 1907  5780  5788 1
 1908  5781  5780 1
 1909  5789  5788 1
 1910  5789  5797 1
 1911  5790  5789 1
 1912  5798  5797 1
 1913  5798  5806 1
 1914  5799  5798 1
 1915  5807  5806 1
 1916  5807  5815 1
 1917  5808  5807 1
 1918  5816  5815 1
 1919  5816  5824 1
 1920  5817  5816 1
 1921  5825  5824 1
 1922  5825  5833 1
 1923  5826  5825 1
 1924  5834  5833 1
 1925  5834  5842 1
 1926  5835  5834 1
 1927  5843  5842 1
 1928  5843  5851 1
 1929  5844  5843 1
 1930  5852  5851 1
 1931  5852  5860 1
 1932  5853  5852 1
 1933  5861  5860 1
 1934  5861  5869 1
 1935  5862  5861 1
 1936  5870  5869 1
 1937  5870  5878 1
 1938  5871  5870 1
 1939  5879  5878 1
 1940  5879  5887 1
 1941  5880  5879 1
 1942  5888  5887 1
 1943  5888  5896 1
 1944  5889  5888 1
 1945  5897  5896 1
 1946  5897  5905 1
 1947  5898  5897 1
 1948  5906  5905 1
 1949  5906  5914 1
 1950  5907  5906 1
 1951  5915  5914 1
 1952  5915  5923 1
 1953  5916  5915 1
 1954  5924  5923 1
 1955  5924  5932 1
 1956  5925  5924 1
 1957  5933  5932 1
 1958  5934  5933 1
 1959  5942  5941 1
 1960  5942  5950 1
 1961  5943  5942 1
 1962  5951  5950 1
 1963  5951  5959 1
 1964  5952  5951 1
 1965  5960  5959 1
 1966  5960  5968 1
 1967  5961  5960 1
 1968  5969  5968 1
 1969  5969  5977 1
 1970  5970  5969 1
 1971  5978  5977 1
 1972  5978  5986 1
 1973  5979  5978 1
 1974  5987  5986 1
 1975  5987  5995 1
 1976  5988  5987 1
 1977  5996  5995 1
 1978  5996  6004 1
 1979  5997  5996 1
 1980  6005  6004 1
 1981  6005  6013 1
 1982  6006  6005 1
 1983  6014  6013 1
 1984  6014  6022 1
 1985  6015  6014 1
 1986  6023  6022 1
 1987  6023  6031 1
 1988  6024  6023 1
 1989  6032  6031 1
 1990  6032  6040 1
 1991  6033  6032 1
 1992  6041  6040 1
 1993  6041  6049 1
 1994  6042  6041 1
 1995  6050  6049 1
 1996  6050  6058 1
 1997  6051  6050 1
 1998  6059  6058 1
 1999  6059  6067 1
 2000  6060  6059 1
 2001  6068  6067 1
 2002  6068  6076 1
 2003  6069  6068 1
 2004  6077  6076 1
 2005  6077  6085 1
 2006  6078  6077 1
 2007  6086  6085 1
 2008  6086  6094 1
 2009  6087  6086 1
 2010  6095  6094 1
 2011  6095  6103 1
 2012  6096  6095 1
 2013  6104  6103 1
 2014  6104  6112 1
 2015  6105  6104 1
 2016  6113  6112 1
 2017  6113  6121 1
 2018  6114  6113 1
 2019  6122  6121 1
 2020  6122  6130 1
 2021  6123  6122 1
 2022  6131  6130 1
 2023  6131  6139 1
 2024  6132  6131 1
 2025  6140  6139 1
 2026  6140  6148 1
 2027  6141  6140 1
 2028  6149  6148 1
 2029  6149  6157 1
 2030  6150  6149 1
 2031  6158  6157 1
 2032  6158  6166 1
 2033  6159  6158 1
 2034  6167  6166 1
 2035  6167  6175 1
 2036  6168  6167 1
 2037  6176  6175 1
 2038  6176  6184 1
 2039  6177  6176 1
 2040  6185  6184 1
 2041  6185  6193 1
 2042  6186  6185 1
 2043  6194  6193 1
 2044  6194  6202 1
 2045  6195  6194 1
 2046  6203  6202 1
 2047  6204  6203 1
 2048  6212  6211 1
 2049  6212  6220 1
 2050  6213  6212 1
 2051  6221  6220 1
 2052  6221  6229 1
 2053  6222  6221 1
 2054  6230  6229 1
 2055  6230  6238 1
 2056  6231  6230 1
 2057  6239  6238 1
 2058  6239  6247 1
 2059  6240  6239 1
 2060  6248  6247 1
 2061  6248  6256 1
 2062  6249  6248 1
 2063  6257  6256 1
 2064  6257  6265 1
 2065  6258  6257 1
 2066  6266  6265 1
 2067  6266  6274 1
 2068  6267  6266 1
 2069  6275  6274 1
 2070  6275  6283 1
 2071  6276  6275 1
 2072  6284  6283 1
 2073  6284  6292 1
 2074  6285  6284 1
 2075  6293  6292 1
 2076  6293  6301 1
 2077  6294  6293 1
 2078  6302  6301 1
 2079  6302  6310 1
 2080  6303  6302 1
 2081  6311  6310 1
 2082  6311  6319 1
 2083  6312  6311 1
 2084  6320  6319 1
 2085  6320  6328 1
 2086  6321  6320 1
 2087  6329  6328 1
 2088  6329  6337 1
 2089  6330  6329 1
 2090  6338  6337 1
 2091  6338  6346 1
 2092  6339  6338 1
 2093  6347  6346 1
 2094  6347  6355 1
 2095  6348  6347 1
 2096  6356  6355 1
 2097  6356  6364 1
 2098  6357  6356 1
 2099  6365  6364 1
 2100  6365  6373 1
 2101  6366  6365 1
 2102  6374  6373 1
 2103  6374  6382 1
 2104  6375  6374 1
 2105  6383  6382 1
 2106  6383  6391 1
 2107  6384  6383 1
 2108  6392  6391 1
 2109  6392  6400 1
 2110  6393  6392 1
 2111  6401  6400 1
 2112  6401  6409 1
 2113  6402  6401 1
 2114  6410  6409 1
 2115  6410  6418 1
 2116  6411  6410 1
 2117  6419  6418 1
 2118  6419  6427 1
 2119  6420  6419 1
 2120  6428  6427 1
 2121  6428  6436 1
 2122  6429  6428 1
 2123  6437  6436 1
 2124  6437  6445 1
 2125  6438  6437 1
 2126  6446  6445 1
 2127  6446  6454 1
 2128  6447  6446 1
 2129  6455  6454 1
 2130  6455  6463 1
 2131  6456  6455 1
 2132  6464  6463 1
 2133  6464  6472 1
 2134  6465  6464 1
 2135  6473  6472 1
 2136  6474  6473 1
 2137  6482  6481 1
 2138  6482  6490 1
 2139  6483  6482 1
 2140  6491  6490 1
 2141  6491  6499 1
 2142  6492  6491 1
 2143  6500  6499 1
 2144  6500  6508 1
 2145  6501  6500 1
 2146  6509  6508 1
 2147  6509  6517 1
 2148  6510  6509 1
 2149  6518  6517 1
 2150  6518  6526 1
 2151  6519  6518 1
 2152  6527  6526 1
 2153  6527  6535 1
 2154  6528  6527 1
 2155  6536  6535 1
 2156  6536  6544 1
 2157  6537  6536 1
 2158  6545  6544 1
 2159  6545  6553 1
 2160  6546  6545 1
 2161  6554  6553 1
 2162  6554  6562 1
 2163  6555  6554 1
 2164  6563  6562 1
 2165  6563  6571 1
 2166  6564  6563 1
 2167  6572  6571 1
 2168  6572  6580 1
 2169  6573  6572 1
 2170  6581  6580 1
 2171  6581  6589 1
 2172  6582  6581 1
 2173  6590  6589 1
 2174  6590  6598 1
 2175  6591  6590 1
 2176  6599  6598 1
 2177  6599  6607 1
 2178  6600  6599 1
 2179  6608  6607 1
 2180  6608  6616 1
 2181  6609  6608 1
 2182  6617  6616 1
 2183  6617  6625 1
 2184  6618  6617 1
 2185  6626  6625 1
 2186  6626  6634 1
 2187  6627  6626 1
 2188  6635  6634 1
 2189  6635  6643 1
 2190  6636  6635 1
 2191  6644  6643 1
 2192  6644  6652 1
 2193  6645  6644 1
 2194  6653  6652 1
 2195  6653  6661 1
 2196  6654  6653 1
 2197  6662  6661 1
 2198  6662  6670 1
 2199  6663  6662 1
 2200  6671  6670 1
 2201  6671  6679 1
 2202  6672  6671 1
 2203  6680  6679 1
 2204  6680  6688 1
 2205  6681  6680 1
 2206  6689  6688 1
 2207  6689  6697 1
 2208  6690  6689 1
 2209  6698  6697 1
 2210  6698  6706 1
 2211  6699  6698 1
 2212  6707  6706 1
 2213  6707  6715 1
 2214  6708  6707 1
 2215  6716  6715 1
 2216  6716  6724 1
 2217  6717  6716 1
 2218  6725  6724 1
 2219  6725  6733 1
 2220  6726  6725 1
 2221  6734  6733 1
 2222  6734  6742 1
 2223  6735  6734 1
 2224  6743  6742 1
 2225  6744  6743 1
 2226  6752  6751 1
 2227  6752  6760 1
 2228  6753  6752 1
 2229  6761  6760 1
 2230  6761  6769 1
 2231  6762  6761 1
 2232  6770  6769 1
 2233  6770  6778 1
 2234  6771  6770 1
 2235  6779  6778 1
 2236  6779  6787 1
 2237  6780  6779 1
 2238  6788  6787 1
 2239  6788  6796 1
 2240  6789  6788 1
 2241  6797  6796 1
 2242  6797  6805 1
 2243  6798  6797 1
 2244  6806  6805 1
 2245  6806  6814 1
 2246  6807  6806 1
 2247  6815  6814 1
 2248  6815  6823 1
 2249  6816  6815 1
 2250  6824  6823 1
 2251  6824  6832 1
 2252  6825  6824 1
 2253  6833  6832 1
 2254  6833  6841 1
 2255  6834  6833 1
 2256  6842  6841 1
 2257  6842  6850 1
 2258  6843  6842 1
 2259  6851  6850 1
 2260  6851  6859 1
 2261  6852  6851 1
 2262  6860  6859 1
 2263  6860  6868 1
 2264  6861  6860 1
 2265  6869  6868 1
 2266  6869  6877 1
 2267  6870  6869 1
 2268  6878  6877 1
 2269  6878  6886 1
 2270  6879  6878 1
 2271  6887  6886 1
 2272  6887  6895 1
 2273  6888  6887 1
 2274  6896  6895 1
 2275  6896  6904 1
 2276  6897  6896 1
 2277  6905  6904 1
 2278  6905  6913 1
 2279  6906  6905 1
 2280  6914  6913 1
 2281  6914  6922 1
 2282  6915  6914 1
 2283  6923  6922 1
 2284  6923  6931 1
 2285  6924  6923 1
 2286  6932  6931 1
 2287  6932  6940 1
 2288  6933  6932 1
 2289  6941  6940 1
 2290  6941  6949 1
 2291  6942  6941 1
 2292  6950  6949 1
 2293  6950  6958 1
 2294  6951  6950 1
 2295  6959  6958 1
 2296  6959  6967 1
 2297  6960  6959 1
 2298  6968  6967 1
 2299  6968  6976 1
 2300  6969  6968 1
 2301  6977  6976 1
 2302  6977  6985 1
 2303  6978  6977 1
 2304  6986  6985 1
 2305  6986  6994 1
 2306  6987  6986 1
 2307  6995  6994 1
 2308  6995  7003 1
 2309  6996  6995 1
 2310  7004  7003 1
 2311  7004  7012 1
 2312  7005  7004 1
 2313  7013  7012 1
 2314  7014  7013 1
 2315  7022  7021 1
 2316  7022  7030 1
 2317  7023  7022 1
 2318  7031  7030 1
 2319  7031  7039 1
 2320  7032  7031 1
 2321  7040  7039 1
 2322  7040  7048 1
 2323  7041  7040 1
 2324  7049  7048 1
 2325  7049  7057 1
 2326  7050  7049 1
 2327  7058  7057 1
 2328  7058  7066 1
 2329  7059  7058 1
 2330  7067  7066 1
 2331  7067  7075 1
 2332  7068  7067 1
 2333  7076  7075 1
 2334  7076  7084 1
 2335  7077  7076 1
 2336  7085  7084 1
 2337  7085  7093 1
 2338  7086  7085 1
 2339  7094  7093 1
 2340  7094  7102 1
 2341  7095  7094 1
 2342  7103  7102 1
 2343  7103  7111 1
 2344  7104  7103 1
 2345  7112  7111 1
 2346  7112  7120 1
 2347  7113  7112 1
 2348  7121  7120 1
 2349  7121  7129 1
 2350  7122  7121 1
 2351  7130  7129 1
 2352  7130  7138 1
 2353  7131  7130 1
 2354  7139  7138 1
 2355  7139  7147 1
 2356  7140  7139 1
 2357  7148  7147 1
 2358  7148  7156 1
 2359  7149  7148 1
 2360  7157  7156 1
 2361  7157  7165 1
 2362  7158  7157 1
 2363  7166  7165 1
 2364  7166  7174 1
 2365  7167  7166 1
 2366  7175  7174 1
 2367  7175  7183 1
 2368  7176  7175 1
 2369  7184  7183 1
 2370  7184  7192 1
 2371  7185  7184 1
 2372  7193  7192 1
 2373  7193  7201 1
 2374  7194  7193 1
 2375  7202  7201 1
 2376  7202  7210 1
 2377  7203  7202 1
 2378  7211  7210 1
 2379  7211  7219 1
 2380  7212  7211 1
 2381  7220  7219 1
 2382  7220  7228 1
 2383  7221  7220 1
 2384  7229  7228 1
 2385  7229  7237 1
 2386  7230  7229 1
 2387  7238  7237 1
 2388  7238  7246 1
 2389  7239  7238 1
 2390  7247  7246 1
 2391  7247  7255 1
 2392  7248  7247 1
 2393  7256  7255 1
 2394  7256  7264 1
 2395  7257  7256 1
 2396  7265  7264 1
 2397  7265  7273 1
 2398  7266  7265 1
 2399  7274  7273 1
 2400  7274  7282 1
 2401  7275  7274 1
 2402  7283  7282 1
 2403  7284  7283 1
 2404  7292  7291 1
 2405  7292  7300 1
 2406  7293  7292 1
 2407  7301  7300 1
 2408  7301  7309 1
 2409  7302  7301 1
 2410  7310  7309 1
 2411  7310  7318 1
 2412  7311  7310 1
 2413  7319  7318 1
 2414  7319  7327 1
 2415  7320  7319 1
 2416  7328  7327 1
 2417  7328  7336 1
 2418  7329  7328 1
 2419  7337  7336 1
 2420  7337  7345 1
 2421  7338  7337 1
 2422  7346  7345 1
 2423  7346  7354 1
 2424  7347  7346 1
 2425  7355  7354 1
 2426  7355  7363 1
 2427  7356  7355 1
 2428  7364  7363 1
 2429  7364  7372 1
 2430  7365  7364 1
 2431  7373  7372 1
 2432  7373  7381 1
 2433  7374  7373 1
 2434  7382  7381 1
 2435  7382  7390 1
 2436  7383  7382 1
 2437  7391  7390 1
 2438  7391  7399 1
 2439  7392  7391 1
 2440  7400  7399 1
 2441  7400  7408 1
 2442  7401  7400 1
 2443  7409  7408 1
 2444  7409  7417 1
 2445  7410  7409 1
 2446  7418  7417 1
 2447  7418  7426 1
 2448  7419  7418 1
 2449  7427  7426 1
 2450  7427  7435 1
 2451  7428  7427 1
 2452  7436  7435 1
 2453  7436  7444 1
 2454  7437  7436 1
 2455  7445  7444 1
 2456  7445  7453 1
 2457  7446  7445 1
 2458  7454  7453 1
 2459  7454  7462 1
 2460  7455  7454 1
 2461  7463  7462 1
 2462  7463  7471 1
 2463  7464  7463 1
 2464  7472  7471 1
 2465  7472  7480 1
 2466  7473  7472 1
 2467  7481  7480 1
 2468  7481  7489 1
 2469  7482  7481 1
 2470  7490  7489 1
 2471  7490  7498 1
 2472  7491  7490 1
 2473  7499  7498 1
 2474  7499  7507 1
 2475  7500  7499 1
 2476  7508  7507 1
 2477  7508  7516 1
 2478  7509  7508 1
 2479  7517  7516 1
 2480  7517  7525 1
 2481  7518  7517 1
 2482  7526  7525 1
 2483  7526  7534 1
 2484  7527  7526 1
 2485  7535  7534 1
 2486  7535  7543 1
 2487  7536  7535 1
 2488  7544  7543 1
 2489  7544  7552 1
 2490  7545  7544 1
 2491  7553  7552 1
 2492  7554  7553 1
 2493  7562  7561 1
 2494  7562  7570 1
 2495  7563  7562 1
 2496  7571  7570 1
 2497  7571  7579 1
 2498  7572  7571 1
 2499  7580  7579 1
 2500  7580  7588 1
 2501  7581  7580 1
 2502  7589  7588 1
 2503  7589  7597 1
 2504  7590  7589 1
 2505  7598  7597 1
 2506  7598  7606 1
 2507  7599  7598 1
 2508  7607  7606 1
 2509  7607  7615 1
 2510  7608  7607 1
 2511  7616  7615 1
 2512  7616  7624 1
 2513  7617  7616 1
 2514  7625  7624 1
 2515  7625  7633 1
 2516  7626  7625 1
 2517  7634  7633 1
 2518  7634  7642 1
 2519  7635  7634 1
 2520  7643  7642 1
 2521  7643  7651 1
 2522  7644  7643 1
 2523  7652  7651 1
 2524  7652  7660 1
 2525  7653  7652 1
 2526  7661  7660 1
 2527  7661  7669 1
 2528  7662  7661 1
 2529  7670  7669 1
 2530  7670  7678 1
 2531  7671  7670 1
 2532  7679  7678 1
 2533  7679  7687 1
 2534  7680  7679 1
 2535  7688  7687 1
 2536  7688  7696 1
 2537  7689  7688 1
 2538  7697  7696 1
 2539  7697  7705 1
 2540  7698  7697 1
 2541  7706  7705 1
 2542  7706  7714 1
 2543  7707  7706 1
 2544  7715  7714 1
 2545  7715  7723 1
 2546  7716  7715 1
 2547  7724  7723 1
 2548  7724  7732 1
 2549  7725  7724 1
 2550  7733  7732 1
 2551  7733  7741 1
 2552  7734  7733 1
 2553  7742  7741 1
 2554  7742  7750 1
 2555  7743  7742 1
 2556  7751  7750 1
 2557  7751  7759 1
 2558  7752  7751 1
 2559  7760  7759 1
 2560  7760  7768 1
 2561  7761  7760 1
 2562  7769  7768 1
 2563  7769  7777 1
 2564  7770  7769 1
 2565  7778  7777 1
 2566  7778  7786 1
 2567  7779  7778 1
 2568  7787  7786 1
 2569  7787  7795 1
 2570  7788  7787 1
 2571  7796  7795 1
 2572  7796  7804 1
 2573  7797  7796 1
 2574  7805  7804 1
 2575  7805  7813 1
 2576  7806  7805 1
 2577  7814  7813 1
 2578  7814  7822 1
 2579  7815  7814 1
 2580  7823  7822 1
 2581  7824  7823 1
 2582  7832  7831 1
 2583  7832  7840 1
 2584  7833  7832 1
 2585  7841  7840 1
 2586  7841  7849 1
 2587  7842  7841 1
 2588  7850  7849 1
 2589  7850  7858 1
 2590  7851  7850 1
 2591  7859  7858 1
 2592  7859  7867 1
 2593  7860  7859 1
 2594  7868  7867 1
 2595  7868  7876 1
 2596  7869  7868 1
 2597  7877  7876 1
 2598  7877  7885 1
 2599  7878  7877 1
 2600  7886  7885 1
 2601  7886  7894 1
 2602  7887  7886 1
 2603  7895  7894 1
 2604  7895  7903 1
 2605  7896  7895 1
 2606  7904  7903 1
 2607  7904  7912 1
 2608  7905  7904 1
 2609  7913  7912 1
 2610  7913  7921 1
 2611  7914  7913 1
 2612  7922  7921 1
 2613  7922  7930 1
 2614  7923  7922 1
 2615  7931  7930 1
 2616  7931  7939 1
 2617  7932  7931 1
 2618  7940  7939 1
 2619  7940  7948 1
 2620  7941  7940 1
 2621  7949  7948 1
 2622  7949  7957 1
 2623  7950  7949 1
 2624  7958  7957 1
 2625  7958  7966 1
 2626  7959  7958 1
 2627  7967  7966 1
 2628  7967  7975 1
 2629  7968  7967 1
 2630  7976  7975 1
 2631  7976  7984 1
 2632  7977  7976 1
 2633  7985  7984 1
 2634  7985  7993 1
 2635  7986  7985 1
 2636  7994  7993 1
 2637  7994  8002 1
 2638  7995  7994 1
 2639  8003  8002 1
 2640  8003  8011 1
 2641  8004  8003 1
 2642  8012  8011 1
 2643  8012  8020 1
 2644  8013  8012 1
 2645  8021  8020 1
 2646  8021  8029 1
 2647  8022  8021 1
 2648  8030  8029 1
 2649  8030  8038 1
 2650  8031  8030 1
 2651  8039  8038 1
 2652  8039  8047 1
 2653  8040  8039 1
 2654  8048  8047 1
 2655  8048  8056 1
 2656  8049  8048 1
 2657  8057  8056 1
 2658  8057  8065 1
 2659  8058  8057 1
 2660  8066  8065 1
 2661  8066  8074 1
 2662  8067  8066 1
 2663  8075  8074 1
 2664  8075  8083 1
 2665  8076  8075 1
 2666  8084  8083 1
 2667  8084  8092 1
 2668  8085  8084 1
 2669  8093  8092 1
 2670  8094  8093 1
 2671  8102  8101 1
 2672  8102  8110 1
 2673  8103  8102 1
 2674  8111  8110 1
 2675  8111  8119 1
 2676  8112  8111 1
 2677  8120  8119 1
 2678  8120  8128 1
 2679  8121  8120 1
 2680  8129  8128 1
 2681  8129  8137 1
 2682  8130  8129 1
 2683  8138  8137 1
 2684  8138  8146 1
 2685  8139  8138 1
 2686  8147  8146 1
 2687  8147  8155 1
 2688  8148  8147 1
 2689  8156  8155 1
 2690  8156  8164 1
 2691  8157  8156 1
 2692  8165  8164 1
 2693  8165  8173 1
 2694  8166  8165 1
 2695  8174  8173 1
 2696  8174  8182 1
 2697  8175  8174 1
 2698  8183  8182 1
 2699  8183  8191 1
 2700  8184  8183 1
 2701  8192  8191 1
 2702  8192  8200 1
 2703  8193  8192 1
 2704  8201  8200 1
 2705  8201  8209 1
 2706  8202  8201 1
 2707  8210  8209 1
 2708  8210  8218 1
 2709  8211  8210 1
 2710  8219  8218 1
 2711  8219  8227 1
 2712  8220  8219 1
 2713  8228  8227 1
 2714  8228  8236 1
 2715  8229  8228 1
 2716  8237  8236 1
 2717  8237  8245 1
 2718  8238  8237 1
 2719  8246  8245 1
 2720  8246  8254 1
 2721  8247  8246 1
 2722  8255  8254 1
 2723  8255  8263 1
 2724  8256  8255 1
 2725  8264  8263 1
 2726  8264  8272 1
 2727  8265  8264 1
 2728  8273  8272 1
 2729  8273  8281 1
 2730  8274  8273 1
 2731  8282  8281 1
 2732  8282  8290 1
 2733  8283  8282 1
 2734  8291  8290 1
 2735  8291  8299 1
 2736  8292  8291 1
 2737  8300  8299 1
 2738  8300  8308 1
 2739  8301  8300 1
 2740  8309  8308 1
 2741  8309  8317 1
 2742  8310  8309 1
 2743  8318  8317 1
 2744  8318  8326 1
 2745  8319  8318 1
 2746  8327  8326 1
 2747  8327  8335 1
 2748  8328  8327 1
 2749  8336  8335 1
 2750  8336  8344 1
 2751  8337  8336 1
 2752  8345  8344 1
 2753  8345  8353 1
 2754  8346  8345 1
 2755  8354  8353 1
 2756  8354  8362 1
 2757  8355  8354 1
 2758  8363  8362 1
 2759  8364  8363 1
 2760  8372  8371 1
 2761  8372  8380 1
 2762  8373  8372 1
 2763  8381  8380 1
 2764  8381  8389 1
 2765  8382  8381 1
 2766  8390  8389 1
 2767  8390  8398 1
 2768  8391  8390 1
 2769  8399  8398 1
 2770  8399  8407 1
 2771  8400  8399 1
 2772  8408  8407 1
 2773  8408  8416 1
 2774  8409  8408 1
 2775  8417  8416 1
 2776  8417  8425 1
 2777  8418  8417 1
 2778  8426  8425 1
 2779  8426  8434 1
 2780  8427  8426 1
 2781  8435  8434 1
 2782  8435  8443 1
 2783  8436  8435 1
 2784  8444  8443 1
 2785  8444  8452 1
 2786  8445  8444 1
 2787  8453  8452 1
 2788  8453  8461 1
 2789  8454  8453 1
 2790  8462  8461 1
 2791  8462  8470 1
 2792  8463  8462 1
 2793  8471  8470 1
 2794  8471  8479 1
 2795  8472  8471 1
 2796  8480  8479 1
 2797  8480  8488 1
 2798  8481  8480 1
 2799  8489  8488 1
 2800  8489  8497 1
 2801  8490  8489 1
 2802  8498  8497 1
 2803  8498  8506 1
 2804  8499  8498 1
 2805  8507  8506 1
 2806  8507  8515 1
 2807  8508  8507 1
 2808  8516  8515 1
 2809  8516  8524 1
 2810  8517  8516 1
 2811  8525  8524 1
 2812  8525  8533 1
 2813  8526  8525 1
 2814  8534  8533 1
 2815  8534  8542 1
 2816  8535  8534 1
 2817  8543  8542 1
 2818  8543  8551 1
 2819  8544  8543 1
 2820  8552  8551 1
 2821  8552  8560 1
 2822  8553  8552 1
 2823  8561  8560 1
 2824  8561  8569 1
 2825  8562  8561 1
 2826  8570  8569 1
 2827  8570  8578 1
 2828  8571  8570 1
 2829  8579  8578 1
 2830  8579  8587 1
 2831  8580  8579 1
 2832  8588  8587 1
 2833  8588  8596 1
 2834  8589  8588 1
 2835  8597  8596 1
 2836  8597  8605 1
 2837  8598  8597 1
 2838  8606  8605 1
 2839  8606  8614 1
 2840  8607  8606 1
 2841  8615  8614 1
 2842  8615  8623 1
 2843  8616  8615 1
 2844  8624  8623 1
 2845  8624  8632 1
 2846  8625  8624 1
 2847  8633  8632 1
 2848  8634  8633 1
 2849  8642  8641 1
 2850  8642  8650 1
 2851  8643  8642 1
 2852  8651  8650 1
 2853  8651  8659 1
 2854  8652  8651 1
 2855  8660  8659 1
 2856  8660  8668 1
 2857  8661  8660 1
 2858  8669  8668 1
 2859  8669  8677 1
 2860  8670  8669 1
 2861  8678  8677 1
 2862  8678  8686 1
 2863  8679  8678 1
 2864  8687  8686 1
 2865  8687  8695 1
 2866  8688  8687 1
 2867  8696  8695 1
 2868  8696  8704 1
 2869  8697  8696 1
 2870  8705  8704 1
 2871  8705  8713 1
 2872  8706  8705 1
 2873  8714  8713 1
 2874  8714  8722 1
 2875  8715  8714 1
 2876  8723  8722 1
 2877  8723  8731 1
 2878  8724  8723 1
 2879  8732  8731 1
 2880  8732  8740 1
 2881  8733  8732 1
 2882  8741  8740 1
 2883  8741  8749 1
 2884  8742  8741 1
 2885  8750  8749 1
 2886  8750  8758 1
 2887  8751  8750 1
 2888  8759  8758 1
 2889  8759  8767 1
 2890  8760  8759 1
 2891  8768  8767 1
 2892  8768  8776 1
 2893  8769  8768 1
 2894  8777  8776 1
 2895  8777  8785 1
 2896  8778  8777 1
 2897  8786  8785 1
 2898  8786  8794 1
 2899  8787  8786 1
 2900  8795  8794 1
 2901  8795  8803 1
 2902  8796  8795 1
 2903  8804  8803 1
 2904  8804  8812 1
 2905  8805  8804 1
 2906  8813  8812 1
 2907  8813  8821 1
 2908  8814  8813 1
 2909  8822  8821 1
 2910  8822  8830 1
 2911  8823  8822 1
 2912  8831  8830 1
 2913  8831  8839 1
 2914  8832  8831 1
 2915  8840  8839 1
 2916  8840  8848 1
 2917  8841  8840 1
 2918  8849  8848 1
 2919  8849  8857 1
 2920  8850  8849 1
 2921  8858  8857 1
 2922  8858  8866 1
 2923  8859  8858 1
 2924  8867  8866 1
 2925  8867  8875 1
 2926  8868  8867 1
 2927  8876  8875 1
 2928  8876  8884 1
 2929  8877  8876 1
 2930  8885  8884 1
 2931  8885  8893 1
 2932  8886  8885 1
 2933  8894  8893 1
 2934  8894  8902 1
 2935  8895  8894 1
 2936  8903  8902 1
 2937  8904  8903 1
 2938  8912  8911 1
 2939  8912  8920 1
 2940  8913  8912 1
 2941  8921  8920 1
 2942  8921  8929 1
 2943  8922  8921 1
 2944  8930  8929 1
 2945  8930  8938 1
 2946  8931  8930 1
 2947  8939  8938 1
 2948  8939  8947 1
 2949  8940  8939 1
 2950  8948  8947 1
 2951  8948  8956 1
 2952  8949  8948 1
 2953  8957  8956 1
 2954  8957  8965 1
 2955  8958  8957 1
 2956  8966  8965 1
 2957  8966  8974 1
 2958  8967  8966 1
 2959  8975  8974 1
 2960  8975  8983 1
 2961  8976  8975 1
 2962  8984  8983 1
 2963  8984  8992 1
 2964  8985  8984 1
 2965  8993  8992 1
 2966  8993  9001 1
 2967  8994  8993 1
 2968  9002  9001 1
 2969  9002  9010 1
 2970  9003  9002 1
 2971  9011  9010 1
 2972  9011  9019 1
 2973  9012  9011 1
 2974  9020  9019 1
 2975  9020  9028 1
 2976  9021  9020 1
 2977  9029  9028 1
 2978  9029  9037 1
 2979  9030  9029 1
 2980  9038  9037 1
 2981  9038  9046 1
 2982  9039  9038 1
 2983  9047  9046 1
 2984  9047  9055 1
 2985  9048  9047 1
 2986  9056  9055 1
 2987  9056  9064 1
 2988  9057  9056 1
 2989  9065  9064 1
 2990  9065  9073 1
 2991  9066  9065 1
 2992  9074  9073 1
 2993  9074  9082 1
 2994  9075  9074 1
 2995  9083  9082 1
 2996  9083  9091 1
 2997  9084  9083 1
 2998  9092  9091 1
 2999  9092  9100 1
 3000  9093  9092 1
 3001  9101  9100 1
 3002  9101  9109 1
 3003  9102  9101 1
 3004  9110  9109 1
 3005  9110  9118 1
 3006  9111  9110 1
 3007  9119  9118 1
 3008  9119  9127 1
 3009  9120  9119 1
 3010  9128  9127 1
 3011  9128  9136 1
 3012  9129  9128 1
 3013  9137  9136 1
 3014  9137  9145 1
 3015  9138  9137 1
 3016  9146  9145 1
 3017  9146  9154 1
 3018  9147  9146 1
 3019  9155  9154 1
 3020  9155  9163 1
 3021  9156  9155 1
 3022  9164  9163 1
 3023  9164  9172 1
 3024  9165  9164 1
 3025  9173  9172 1
 3026  9174  9173 1
 3027  9182  9181 1
 3028  9182  9190 1
 3029  9183  9182 1
 3030  9191  9190 1
 3031  9191  9199 1
 3032  9192  9191 1
 3033  9200  9199 1
 3034  9200  9208 1
 3035  9201  9200 1
 3036  9209  9208 1
 3037  9209  9217 1
 3038  9210  9209 1
 3039  9218  9217 1
 3040  9218  9226 1
 3041  9219  9218 1
 3042  9227  9226 1
 3043  9227  9235 1
 3044  9228  9227 1
 3045  9236  9235 1
 3046  9236  9244 1
 3047  9237  9236 1
 3048  9245  9244 1
 3049  9245  9253 1
 3050  9246  9245 1
 3051  9254  9253 1
 3052  9254  9262 1
 3053  9255  9254 1
 3054  9263  9262 1
 3055  9263  9271 1
 3056  9264  9263 1
 3057  9272  9271 1
 3058  9272  9280 1
 3059  9273  9272 1
 3060  9281  9280 1
 3061  9281  9289 1
 3062  9282  9281 1
 3063  9290  9289 1
 3064  9290  9298 1
 3065  9291  9290 1
 3066  9299  9298 1
 3067  9299  9307 1
 3068  9300  9299 1
 3069  9308  9307 1
 3070  9308  9316 1
 3071  9309  9308 1
 3072  9317  9316 1
 3073  9317  9325 1
 3074  9318  9317 1
 3075  9326  9325 1
 3076  9326  9334 1
 3077  9327  9326 1
 3078  9335  9334 1
 3079  9335  9343 1
 3080  9336  9335 1
 3081  9344  9343 1
 3082  9344  9352 1
 3083  9345  9344 1
 3084  9353  9352 1
 3085  9353  9361 1
 3086  9354  9353 1
 3087  9362  9361 1
 3088  9362  9370 1
 3089  9363  9362 1
 3090  9371  9370 1
 3091  9371  9379 1
 3092  9372  9371 1
 3093  9380  9379 1
 3094  9380  9388 1
 3095  9381  9380 1
 3096  9389  9388 1
 3097  9389  9397 1
 3098  9390  9389 1
 3099  9398  9397 1
 3100  9398  9406 1
 3101  9399  9398 1
 3102  9407  9406 1
 3103  9407  9415 1
 3104  9408  9407 1
 3105  9416  9415 1
 3106  9416  9424 1
 3107  9417  9416 1
 3108  9425  9424 1
 3109  9425  9433 1
 3110  9426  9425 1
 3111  9434  9433 1
 3112  9434  9442 1
 3113  9435  9434 1
 3114  9443  9442 1
 3115  9444  9443 1
 3116  9452  9451 1
 3117  9452  9460 1
 3118  9453  9452 1
 3119  9461  9460 1
 3120  9461  9469 1
 3121  9462  9461 1
 3122  9470  9469 1
 3123  9470  9478 1
 3124  9471  9470 1
 3125  9479  9478 1
 3126  9479  9487 1
 3127  9480  9479 1
 3128  9488  9487 1
 3129  9488  9496 1
 3130  9489  9488 1
 3131  9497  9496 1
 3132  9497  9505 1
 3133  9498  9497 1
 3134  9506  9505 1
 3135  9506  9514 1
 3136  9507  9506 1
 3137  9515  9514 1
 3138  9515  9523 1
 3139  9516  9515 1
 3140  9524  9523 1
 3141  9524  9532 1
 3142  9525  9524 1
 3143  9533  9532 1
 3144  9533  9541 1
 3145  9534  9533 1
 3146  9542  9541 1
 3147  9542  9550 1
 3148  9543  9542 1
 3149  9551  9550 1
 3150  9551  9559 1
 3151  9552  9551 1
 3152  9560  9559 1
 3153  9560  9568 1
 3154  9561  9560 1
 3155  9569  9568 1
 3156  9569  9577 1
 3157  9570  9569 1
 3158  9578  9577 1
 3159  9578  9586 1
 3160  9579  9578 1
 3161  9587  9586 1
 3162  9587  9595 1
 3163  9588  9587 1
 3164  9596  9595 1
 3165  9596  9604 1
 3166  9597  9596 1
 3167  9605  9604 1
 3168  9605  9613 1
 3169  9606  9605 1
 3170  9614  9613 1
 3171  9614  9622 1
 3172  9615  9614 1
 3173  9623  9622 1
 3174  9623  9631 1
 3175  9624  9623 1
 3176  9632  9631 1
 3177  9632  9640 1
 3178  9633  9632 1
 3179  9641  9640 1
 3180  9641  9649 1
 3181  9642  9641 1
 3182  9650  9649 1
 3183  9650  9658 1
 3184  9651  9650 1
 3185  9659  9658 1
 3186  9659  9667 1
 3187  9660  9659 1
 3188  9668  9667 1
 3189  9668  9676 1
 3190  9669  9668 1
 3191  9677  9676 1
 3192  9677  9685 1
 3193  9678  9677 1
 3194  9686  9685 1
 3195  9686  9694 1
 3196  9687  9686 1
 3197  9695  9694 1
 3198  9695  9703 1
 3199  9696  9695 1
 3200  9704  9703 1
 3201  9704  9712 1
 3202  9705  9704 1
 3203  9713  9712 1
 3204  9714  9713 1
 3205  9722  9721 1
 3206  9722  9730 1
 3207  9723  9722 1
 3208  9731  9730 1
 3209  9731  9739 1
 3210  9732  9731 1
 3211  9740  9739 1
 3212  9740  9748 1
 3213  9741  9740 1
 3214  9749  9748 1
 3215  9749  9757 1
 3216  9750  9749 1
 3217  9758  9757 1
 3218  9758  9766 1
 3219  9759  9758 1
 3220  9767  9766 1
 3221  9767  9775 1
 3222  9768  9767 1
 3223  9776  9775 1
 3224  9776  9784 1
 3225  9777  9776 1
 3226  9785  9784 1
 3227  9785  9793 1
 3228  9786  9785 1
 3229  9794  9793 1
 3230  9794  9802 1
 3231  9795  9794 1
 3232  9803  9802 1
 3233  9803  9811 1
 3234  9804  9803 1
 3235  9812  9811 1
 3236  9812  9820 1
 3237  9813  9812 1
 3238  9821  9820 1
 3239  9821  9829 1
 3240  9822  9821 1
 3241  9830  9829 1
 3242  9830  9838 1
 3243  9831  9830 1
 3244  9839  9838 1
 3245  9839  9847 1
 3246  9840  9839 1
 3247  9848  9847 1
 3248  9848  9856 1
 3249  9849  9848 1
 3250  9857  9856 1
 3251  9857  9865 1
 3252  9858  9857 1
 3253  9866  9865 1
 3254  9866  9874 1
 3255  9867  9866 1
 3256  9875  9874 1
 3257  9875  9883 1
 3258  9876  9875 1
 3259  9884  9883 1
 3260  9884  9892 1
 3261  9885  9884 1
 3262  9893  9892 1
 3263  9893  9901 1
 3264  9894  9893 1
 3265  9902  9901 1
 3266  9902  9910 1
 3267  9903  9902 1
 3268  9911  9910 1
 3269  9911  9919 1
 3270  9912  9911 1
 3271  9920  9919 1
 3272  9920  9928 1
 3273  9921  9920 1
 3274  9929  9928 1
 3275  9929  9937 1
 3276  9930  9929 1
 3277  9938  9937 1
 3278  9938  9946 1
 3279  9939  9938 1
 3280  9947  9946 1
 3281  9947  9955 1
 3282  9948  9947 1
 3283  9956  9955 1
 3284  9956  9964 1
 3285  9957  9956 1
 3286  9965  9964 1
 3287  9965  9973 1
 3288  9966  9965 1
 3289  9974  9973 1
 3290  9974  9982 1
 3291  9975  9974 1
 3292  9983  9982 1
 3293  9984  9983 1
 3294  9992  9991 1
 3295  9992 10000 1
 3296  9993  9992 1
 3297 10001 10000 1
 3298 10001 10009 1
 3299 10002 10001 1
 3300 10010 10009 1
 3301 10010 10018 1
 3302 10011 10010 1
 3303 10019 10018 1
 3304 10019 10027 1
 3305 10020 10019 1
 3306 10028 10027 1
 3307 10028 10036 1
 3308 10029 10028 1
 3309 10037 10036 1
 3310 10037 10045 1
 3311 10038 10037 1
 3312 10046 10045 1
 3313 10046 10054 1
 3314 10047 10046 1
 3315 10055 10054 1
 3316 10055 10063 1
 3317 10056 10055 1
 3318 10064 10063 1
 3319 10064 10072 1
 3320 10065 10064 1
 3321 10073 10072 1
 3322 10073 10081 1
 3323 10074 10073 1
 3324 10082 10081 1
 3325 10082 10090 1
 3326 10083 10082 1
 3327 10091 10090 1
 3328 10091 10099 1
 3329 10092 10091 1
 3330 10100 10099 1
 3331 10100 10108 1
 3332 10101 10100 1
 3333 10109 10108 1
 3334 10109 10117 1
 3335 10110 10109 1
 3336 10118 10117 1
 3337 10118 10126 1
 3338 10119 10118 1
 3339 10127 10126 1
 3340 10127 10135 1
 3341 10128 10127 1
 3342 10136 10135 1
 3343 10136 10144 1
 3344 10137 10136 1
 3345 10145 10144 1
 3346 10145 10153 1
 3347 10146 10145 1
 3348 10154 10153 1
 3349 10154 10162 1
 3350 10155 10154 1
 3351 10163 10162 1
 3352 10163 10171 1
 3353 10164 10163 1
 3354 10172 10171 1
 3355 10172 10180 1
 3356 10173 10172 1
 3357 10181 10180 1
 3358 10181 10189 1
 3359 10182 10181 1
 3360 10190 10189 1
 3361 10190 10198 1
 3362 10191 10190 1
 3363 10199 10198 1
 3364 10199 10207 1
 3365 10200 10199 1
 3366 10208 10207 1
 3367 10208 10216 1
 3368 10209 10208 1
 3369 10217 10216 1
 3370 10217 10225 1
 3371 10218 10217 1
 3372 10226 10225 1
 3373 10226 10234 1
 3374 10227 10226 1
 3375 10235 10234 1
 3376 10235 10243 1
 3377 10236 10235 1
 3378 10244 10243 1
 3379 10244 10252 1
 3380 10245 10244 1
 3381 10253 10252 1
 3382 10254 10253 1
 3383 10262 10261 1
 3384 10262 10270 1
 3385 10263 10262 1
 3386 10271 10270 1
 3387 10271 10279 1
 3388 10272 10271 1
 3389 10280 10279 1
 3390 10280 10288 1
 3391 10281 10280 1
 3392 10289 10288 1
 3393 10289 10297 1
 3394 10290 10289 1
 3395 10298 10297 1
 3396 10298 10306 1
 3397 10299 10298 1
 3398 10307 10306 1
 3399 10307 10315 1
 3400 10308 10307 1
 3401 10316 10315 1
 3402 10316 10324 1
 3403 10317 10316 1
 3404 10325 10324 1
 3405 10325 10333 1
 3406 10326 10325 1
 3407 10334 10333 1
 3408 10334 10342 1
 3409 10335 10334 1
 3410 10343 10342 1
 3411 10343 10351 1
 3412 10344 10343 1
 3413 10352 10351 1
 3414 10352 10360 1
 3415 10353 10352 1
 3416 10361 10360 1
 3417 10361 10369 1
 3418 10362 10361 1
 3419 10370 10369 1
 3420 10370 10378 1
 3421 10371 10370 1
 3422 10379 10378 1
 3423 10379 10387 1
 3424 10380 10379 1
 3425 10388 10387 1
 3426 10388 10396 1
 3427 10389 10388 1
 3428 10397 10396 1
 3429 10397 10405 1
 3430 10398 10397 1
 3431 10406 10405 1
 3432 10406 10414 1
 3433 10407 10406 1
 3434 10415 10414 1
 3435 10415 10423 1
 3436 10416 10415 1
 3437 10424 10423 1
 3438 10424 10432 1
 3439 10425 10424 1
 3440 10433 10432 1
 3441 10433 10441 1
 3442 10434 10433 1
 3443 10442 10441 1
 3444 10442 10450 1
 3445 10443 10442 1
 3446 10451 10450 1
 3447 10451 10459 1
 3448 10452 10451 1
 3449 10460 10459 1
 3450 10460 10468 1
 3451 10461 10460 1
 3452 10469 10468 1
 3453 10469 10477 1
 3454 10470 10469 1
 3455 10478 10477 1
 3456 10478 10486 1
 3457 10479 10478 1
 3458 10487 10486 1
 3459 10487 10495 1
 3460 10488 10487 1
 3461 10496 10495 1
 3462 10496 10504 1
 3463 10497 10496 1
 3464 10505 10504 1
 3465 10505 10513 1
 3466 10506 10505 1
 3467 10514 10513 1
 3468 10514 10522 1
 3469 10515 10514 1
 3470 10523 10522 1
 3471 10524 10523 1
 3472 10532 10531 1
 3473 10532 10540 1
 3474 10533 10532 1
 3475 10541 10540 1
 3476 10541 10549 1
 3477 10542 10541 1
 3478 10550 10549 1
 3479 10550 10558 1
 3480 10551 10550 1
 3481 10559 10558 1
 3482 10559 10567 1
 3483 10560 10559 1
 3484 10568 10567 1
 3485 10568 10576 1
 3486 10569 10568 1
 3487 10577 10576 1
 3488 10577 10585 1
 3489 10578 10577 1
 3490 10586 10585 1
 3491 10586 10594 1
 3492 10587 10586 1
 3493 10595 10594 1
 3494 10595 10603 1
 3495 10596 10595 1
 3496 10604 10603 1
 3497 10604 10612 1
 3498 10605 10604 1
 3499 10613 10612 1
 3500 10613 10621 1
 3501 10614 10613 1
 3502 10622 10621 1
 3503 10622 10630 1
 3504 10623 10622 1
 3505 10631 10630 1
 3506 10631 10639 1
 3507 10632 10631 1
 3508 10640 10639 1
 3509 10640 10648 1
 3510 10641 10640 1
 3511 10649 10648 1
 3512 10649 10657 1
 3513 10650 10649 1
 3514 10658 10657 1
 3515 10658 10666 1
 3516 10659 10658 1
 3517 10667 10666 1
 3518 10667 10675 1
 3519 10668 10667 1
 3520 10676 10675 1
 3521 10676 10684 1
 3522 10677 10676 1
 3523 10685 10684 1
 3524 10685 10693 1
 3525 10686 10685 1
 3526 10694 10693 1
 3527 10694 10702 1
 3528 10695 10694 1
 3529 10703 10702 1
 3530 10703 10711 1
 3531 10704 10703 1
 3532 10712 10711 1
 3533 10712 10720 1
 3534 10713 10712 1
 3535 10721 10720 1
 3536 10721 10729 1
 3537 10722 10721 1
 3538 10730 10729 1
 3539 10730 10738 1
 3540 10731 10730 1
 3541 10739 10738 1
 3542 10739 10747 1
 3543 10740 10739 1
 3544 10748 10747 1
 3545 10748 10756 1
 3546 10749 10748 1
 3547 10757 10756 1
 3548 10757 10765 1
 3549 10758 10757 1
 3550 10766 10765 1
 3551 10766 10774 1
 3552 10767 10766 1
 3553 10775 10774 1
 3554 10775 10783 1
 3555 10776 10775 1
 3556 10784 10783 1
 3557 10784 10792 1
 3558 10785 10784 1
 3559 10793 10792 1
 3560 10794 10793 1
 3561 10802 10801 1
 3562 10802 10810 1
 3563 10803 10802 1
 3564 10811 10810 1
 3565 10811 10819 1
 3566 10812 10811 1
 3567 10820 10819 1
 3568 10820 10828 1
 3569 10821 10820 1
 3570 10829 10828 1
 3571 10829 10837 1
 3572 10830 10829 1
 3573 10838 10837 1
 3574 10838 10846 1
 3575 10839 10838 1
 3576 10847 10846 1
 3577 10847 10855 1
 3578 10848 10847 1
 3579 10856 10855 1
 3580 10856 10864 1
 3581 10857 10856 1
 3582 10865 10864 1
 3583 10865 10873 1
 3584 10866 10865 1
 3585 10874 10873 1
 3586 10874 10882 1
 3587 10875 10874 1
 3588 10883 10882 1
 3589 10883 10891 1
 3590 10884 10883 1
 3591 10892 10891 1
 3592 10892 10900 1
 3593 10893 10892 1
 3594 10901 10900 1
 3595 10901 10909 1
 3596 10902 10901 1
 3597 10910 10909 1
 3598 10910 10918 1
 3599 10911 10910 1
 3600 10919 10918 1
 3601 10919 10927 1
 3602 10920 10919 1
 3603 10928 10927 1
 3604 10928 10936 1
 3605 10929 10928 1
 3606 10937 10936 1
 3607 10937 10945 1
 3608 10938 10937 1
 3609 10946 10945 1
 3610 10946 10954 1
 3611 10947 10946 1
 3612 10955 10954 1
 3613 10955 10963 1
 3614 10956 10955 1
 3615 10964 10963 1
 3616 10964 10972 1
 3617 10965 10964 1
 3618 10973 10972 1
 3619 10973 10981 1
 3620 10974 10973 1
 3621 10982 10981 1
 3622 10982 10990 1
 3623 10983 10982 1
 3624 10991 10990 1
 3625 10991 10999 1
 3626 10992 10991 1
 3627 11000 10999 1
 3628 11000 11008 1
 3629 11001 11000 1
 3630 11009 11008 1
 3631 11009 11017 1
 3632 11010 11009 1
 3633 11018 11017 1
 3634 11018 11026 1
 3635 11019 11018 1
 3636 11027 11026 1
 3637 11027 11035 1
 3638 11028 11027 1
 3639 11036 11035 1
 3640 11036 11044 1
 3641 11037 11036 1
 3642 11045 11044 1
 3643 11045 11053 1
 3644 11046 11045 1
 3645 11054 11053 1
 3646 11054 11062 1
 3647 11055 11054 1
 3648 11063 11062 1
 3649 11064 11063 1
 3650 11072 11071 1
 3651 11072 11080 1
 3652 11073 11072 1
 3653 11081 11080 1
 3654 11081 11089 1
 3655 11082 11081 1
 3656 11090 11089 1
 3657 11090 11098 1
 3658 11091 11090 1
 3659 11099 11098 1
 3660 11099 11107 1
 3661 11100 11099 1
 3662 11108 11107 1
 3663 11108 11116 1
 3664 11109 11108 1
 3665 11117 11116 1
 3666 11117 11125 1
 3667 11118 11117 1
 3668 11126 11125 1
 3669 11126 11134 1
 3670 11127 11126 1
 3671 11135 11134 1
 3672 11135 11143 1
 3673 11136 11135 1
 3674 11144 11143 1
 3675 11144 11152 1
 3676 11145 11144 1
 3677 11153 11152 1
 3678 11153 11161 1
 3679 11154 11153 1
 3680 11162 11161 1
 3681 11162 11170 1
 3682 11163 11162 1
 3683 11171 11170 1
 3684 11171 11179 1
 3685 11172 11171 1
 3686 11180 11179 1
 3687 11180 11188 1
 3688 11181 11180 1
 3689 11189 11188 1
 3690 11189 11197 1
 3691 11190 11189 1
 3692 11198 11197 1
 3693 11198 11206 1
 3694 11199 11198 1
 3695 11207 11206 1
 3696 11207 11215 1
 3697 11208 11207 1
 3698 11216 11215 1
 3699 11216 11224 1
 3700 11217 11216 1
 3701 11225 11224 1
 3702 11225 11233 1
 3703 11226 11225 1
 3704 11234 11233 1
 3705 11234 11242 1
 3706 11235 11234 1
 3707 11243 11242 1
 3708 11243 11251 1
 3709 11244 11243 1
 3710 11252 11251 1
 3711 11252 11260 1
 3712 11253 11252 1
 3713 11261 11260 1
 3714 11261 11269 1
 3715 11262 11261 1
 3716 11270 11269 1
 3717 11270 11278 1
 3718 11271 11270 1
 3719 11279 11278 1
 3720 11279 11287 1
 3721 11280 11279 1
 3722 11288 11287 1
 3723 11288 11296 1
 3724 11289 11288 1
 3725 11297 11296 1
 3726 11297 11305 1
 3727 11298 11297 1
 3728 11306 11305 1
 3729 11306 11314 1
 3730 11307 11306 1
 3731 11315 11314 1
 3732 11315 11323 1
 3733 11316 11315 1
 3734 11324 11323 1
 3735 11324 11332 1
 3736 11325 11324 1
 3737 11333 11332 1
 3738 11334 11333 1
 3739 11342 11341 1
 3740 11342 11350 1
 3741 11343 11342 1
 3742 11351 11350 1
 3743 11351 11359 1
 3744 11352 11351 1
 3745 11360 11359 1
 3746 11360 11368 1
 3747 11361 11360 1
 3748 11369 11368 1
 3749 11369 11377 1
 3750 11370 11369 1
 3751 11378 11377 1
 3752 11378 11386 1
 3753 11379 11378 1
 3754 11387 11386 1
 3755 11387 11395 1
 3756 11388 11387 1
 3757 11396 11395 1
 3758 11396 11404 1
 3759 11397 11396 1
 3760 11405 11404 1
 3761 11405 11413 1
 3762 11406 11405 1
 3763 11414 11413 1
 3764 11414 11422 1
 3765 11415 11414 1
 3766 11423 11422 1
 3767 11423 11431 1
 3768 11424 11423 1
 3769 11432 11431 1
 3770 11432 11440 1
 3771 11433 11432 1
 3772 11441 11440 1
 3773 11441 11449 1
 3774 11442 11441 1
 3775 11450 11449 1
 3776 11450 11458 1
 3777 11451 11450 1
 3778 11459 11458 1
 3779 11459 11467 1
 3780 11460 11459 1
 3781 11468 11467 1
 3782 11468 11476 1
 3783 11469 11468 1
 3784 11477 11476 1
 3785 11477 11485 1
 3786 11478 11477 1
 3787 11486 11485 1
 3788 11486 11494 1
 3789 11487 11486 1
 3790 11495 11494 1
 3791 11495 11503 1
 3792 11496 11495 1
 3793 11504 11503 1
 3794 11504 11512 1
 3795 11505 11504 1
 3796 11513 11512 1
 3797 11513 11521 1
 3798 11514 11513 1
 3799 11522 11521 1
 3800 11522 11530 1
 3801 11523 11522 1
 3802 11531 11530 1
 3803 11531 11539 1
 3804 11532 11531 1
 3805 11540 11539 1
 3806 11540 11548 1
 3807 11541 11540 1
 3808 11549 11548 1
 3809 11549 11557 1
 3810 11550 11549 1
 3811 11558 11557 1
 3812 11558 11566 1
 3813 11559 11558 1
 3814 11567 11566 1
 3815 11567 11575 1
 3816 11568 11567 1
 3817 11576 11575 1
 3818 11576 11584 1
 3819 11577 11576 1
 3820 11585 11584 1
 3821 11585 11593 1
 3822 11586 11585 1
 3823 11594 11593 1
 3824 11594 11602 1
 3825 11595 11594 1
 3826 11603 11602 1
 3827 11604 11603 1
 3828 11612 11611 1
 3829 11612 11620 1
 3830 11613 11612 1
 3831 11621 11620 1
 3832 11621 11629 1
 3833 11622 11621 1
 3834 11630 11629 1
 3835 11630 11638 1
 3836 11631 11630 1
 3837 11639 11638 1
 3838 11639 11647 1
 3839 11640 11639 1
 3840 11648 11647 1
 3841 11648 11656 1
 3842 11649 11648 1
 3843 11657 11656 1
 3844 11657 11665 1
 3845 11658 11657 1
 3846 11666 11665 1
 3847 11666 11674 1
 3848 11667 11666 1
 3849 11675 11674 1
 3850 11675 11683 1
 3851 11676 11675 1
 3852 11684 11683 1
 3853 11684 11692 1
 3854 11685 11684 1
 3855 11693 11692 1
 3856 11693 11701 1
 3857 11694 11693 1
 3858 11702 11701 1
 3859 11702 11710 1
 3860 11703 11702 1
 3861 11711 11710 1
 3862 11711 11719 1
 3863 11712 11711 1
 3864 11720 11719 1
 3865 11720 11728 1
 3866 11721 11720 1
 3867 11729 11728 1
 3868 11729 11737 1
 3869 11730 11729 1
 3870 11738 11737 1
 3871 11738 11746 1
 3872 11739 11738 1
 3873 11747 11746 1
 3874 11747 11755 1
 3875 11748 11747 1
 3876 11756 11755 1
 3877 11756 11764 1
 3878 11757 11756 1
 3879 11765 11764 1
 3880 11765 11773 1
 3881 11766 11765 1
 3882 11774 11773 1
 3883 11774 11782 1
 3884 11775 11774 1
 3885 11783 11782 1
 3886 11783 11791 1
 3887 11784 11783 1
 3888 11792 11791 1
 3889 11792 11800 1
 3890 11793 11792 1
 3891 11801 11800 1
 3892 11801 11809 1
 3893 11802 11801 1
 3894 11810 11809 1
 3895 11810 11818 1
 3896 11811 11810 1
 3897 11819 11818 1
 3898 11819 11827 1
 3899 11820 11819 1
 3900 11828 11827 1
 3901 11828 11836 1
 3902 11829 11828 1
 3903 11837 11836 1
 3904 11837 11845 1
 3905 11838 11837 1
 3906 11846 11845 1
 3907 11846 11854 1
 3908 11847 11846 1
 3909 11855 11854 1
 3910 11855 11863 1
 3911 11856 11855 1
 3912 11864 11863 1
 3913 11864 11872 1
 3914 11865 11864 1
 3915 11873 11872 1
 3916 11874 11873 1
 3917 11882 11881 1
 3918 11882 11890 1
 3919 11883 11882 1
 3920 11891 11890 1
 3921 11891 11899 1
 3922 11892 11891 1
 3923 11900 11899 1
 3924 11900 11908 1
 3925 11901 11900 1
 3926 11909 11908 1
 3927 11909 11917 1
 3928 11910 11909 1
 3929 11918 11917 1
 3930 11918 11926 1
 3931 11919 11918 1
 3932 11927 11926 1
 3933 11927 11935 1
 3934 11928 11927 1
 3935 11936 11935 1
 3936 11936 11944 1
 3937 11937 11936 1
 3938 11945 11944 1
 3939 11945 11953 1
 3940 11946 11945 1
 3941 11954 11953 1
 3942 11954 11962 1
 3943 11955 11954 1
 3944 11963 11962 1
 3945 11963 11971 1
 3946 11964 11963 1
 3947 11972 11971 1
 3948 11972 11980 1
 3949 11973 11972 1
 3950 11981 11980 1
 3951 11981 11989 1
 3952 11982 11981 1
 3953 11990 11989 1
 3954 11990 11998 1
 3955 11991 11990 1
 3956 11999 11998 1
 3957 11999 12007 1
 3958 12000 11999 1
 3959 12008 12007 1
 3960 12008 12016 1
 3961 12009 12008 1
 3962 12017 12016 1
 3963 12017 12025 1
 3964 12018 12017 1
 3965 12026 12025 1
 3966 12026 12034 1
 3967 12027 12026 1
 3968 12035 12034 1
 3969 12035 12043 1
 3970 12036 12035 1
 3971 12044 12043 1
 3972 12044 12052 1
 3973 12045 12044 1
 3974 12053 12052 1
 3975 12053 12061 1
 3976 12054 12053 1
 3977 12062 12061 1
 3978 12062 12070 1
 3979 12063 12062 1
 3980 12071 12070 1
 3981 12071 12079 1
 3982 12072 12071 1
 3983 12080 12079 1
 3984 12080 12088 1
 3985 12081 12080 1
 3986 12089 12088 1
 3987 12089 12097 1
 3988 12090 12089 1
 3989 12098 12097 1
 3990 12098 12106 1
 3991 12099 12098 1
 3992 12107 12106 1
 3993 12107 12115 1
 3994 12108 12107 1
 3995 12116 12115 1
 3996 12116 12124 1
 3997 12117 12116 1
 3998 12125 12124 1
 3999 12125 12133 1
 4000 12126 12125 1
 4001 12134 12133 1
 4002 12134 12142 1
 4003 12135 12134 1
 4004 12143 12142 1
 4005 12144 12143 1
 4006 12152 12151 1
 4007 12152 12160 1
 4008 12153 12152 1
 4009 12161 12160 1
 4010 12161 12169 1
 4011 12162 12161 1
 4012 12170 12169 1
 4013 12170 12178 1
 4014 12171 12170 1
 4015 12179 12178 1
 4016 12179 12187 1
 4017 12180 12179 1
 4018 12188 12187 1
 4019 12188 12196 1
 4020 12189 12188 1
 4021 12197 12196 1
 4022 12197 12205 1
 4023 12198 12197 1
 4024 12206 12205 1
 4025 12206 12214 1
 4026 12207 12206 1
 4027 12215 12214 1
 4028 12215 12223 1
 4029 12216 12215 1
 4030 12224 12223 1
 4031 12224 12232 1
 4032 12225 12224 1
 4033 12233 12232 1
 4034 12233 12241 1
 4035 12234 12233 1
 4036 12242 12241 1
 4037 12242 12250 1
 4038 12243 12242 1
 4039 12251 12250 1
 4040 12251 12259 1
 4041 12252 12251 1
 4042 12260 12259 1
 4043 12260 12268 1
 4044 12261 12260 1
 4045 12269 12268 1
 4046 12269 12277 1
 4047 12270 12269 1
 4048 12278 12277 1
 4049 12278 12286 1
 4050 12279 12278 1
 4051 12287 12286 1
 4052 12287 12295 1
 4053 12288 12287 1
 4054 12296 12295 1
 4055 12296 12304 1
 4056 12297 12296 1
 4057 12305 12304 1
 4058 12305 12313 1
 4059 12306 12305 1
 4060 12314 12313 1
 4061 12314 12322 1
 4062 12315 12314 1
 4063 12323 12322 1
 4064 12323 12331 1
 4065 12324 12323 1
 4066 12332 12331 1
 4067 12332 12340 1
 4068 12333 12332 1
 4069 12341 12340 1
 4070 12341 12349 1
 4071 12342 12341 1
 4072 12350 12349 1
 4073 12350 12358 1
 4074 12351 12350 1
 4075 12359 12358 1
 4076 12359 12367 1
 4077 12360 12359 1
 4078 12368 12367 1
 4079 12368 12376 1
 4080 12369 12368 1
 4081 12377 12376 1
 4082 12377 12385 1
 4083 12378 12377 1
 4084 12386 12385 1
 4085 12386 12394 1
 4086 12387 12386 1
 4087 12395 12394 1
 4088 12395 12403 1
 4089 12396 12395 1
 4090 12404 12403 1
 4091 12404 12412 1
 4092 12405 12404 1
 4093 12413 12412 1
 4094 12414 12413 1
 4095 12422 12421 1
 4096 12422 12430 1
 4097 12423 12422 1
 4098 12431 12430 1
 4099 12431 12439 1
 4100 12432 12431 1
 4101 12440 12439 1
 4102 12440 12448 1
 4103 12441 12440 1
 4104 12449 12448 1
 4105 12449 12457 1
 4106 12450 12449 1
 4107 12458 12457 1
 4108 12458 12466 1
 4109 12459 12458 1
 4110 12467 12466 1
 4111 12467 12475 1
 4112 12468 12467 1
 4113 12476 12475 1
 4114 12476 12484 1
 4115 12477 12476 1
 4116 12485 12484 1
 4117 12485 12493 1
 4118 12486 12485 1
 4119 12494 12493 1
 4120 12494 12502 1
 4121 12495 12494 1
 4122 12503 12502 1
 4123 12503 12511 1
 4124 12504 12503 1
 4125 12512 12511 1
 4126 12512 12520 1
 4127 12513 12512 1
 4128 12521 12520 1
 4129 12521 12529 1
 4130 12522 12521 1
 4131 12530 12529 1
 4132 12530 12538 1
 4133 12531 12530 1
 4134 12539 12538 1
 4135 12539 12547 1
 4136 12540 12539 1
 4137 12548 12547 1
 4138 12548 12556 1
 4139 12549 12548 1
 4140 12557 12556 1
 4141 12557 12565 1
 4142 12558 12557 1
 4143 12566 12565 1
 4144 12566 12574 1
 4145 12567 12566 1
 4146 12575 12574 1
 4147 12575 12583 1
 4148 12576 12575 1
 4149 12584 12583 1
 4150 12584 12592 1
 4151 12585 12584 1
 4152 12593 12592 1
 4153 12593 12601 1
 4154 12594 12593 1
 4155 12602 12601 1
 4156 12602 12610 1
 4157 12603 12602 1
 4158 12611 12610 1
 4159 12611 12619 1
 4160 12612 12611 1
 4161 12620 12619 1
 4162 12620 12628 1
 4163 12621 12620 1
 4164 12629 12628 1
 4165 12629 12637 1
 4166 12630 12629 1
 4167 12638 12637 1
 4168 12638 12646 1
 4169 12639 12638 1
 4170 12647 12646 1
 4171 12647 12655 1
 4172 12648 12647 1
 4173 12656 12655 1
 4174 12656 12664 1
 4175 12657 12656 1
 4176 12665 12664 1
 4177 12665 12673 1
 4178 12666 12665 1
 4179 12674 12673 1
 4180 12674 12682 1
 4181 12675 12674 1
 4182 12683 12682 1
 4183 12684 12683 1
 4184 12692 12691 1
 4185 12692 12700 1
 4186 12693 12692 1
 4187 12701 12700 1
 4188 12701 12709 1
 4189 12702 12701 1
 4190 12710 12709 1
 4191 12710 12718 1
 4192 12711 12710 1
 4193 12719 12718 1
 4194 12719 12727 1
 4195 12720 12719 1
 4196 12728 12727 1
 4197 12728 12736 1
 4198 12729 12728 1
 4199 12737 12736 1
 4200 12737 12745 1
 4201 12738 12737 1
 4202 12746 12745 1
 4203 12746 12754 1
 4204 12747 12746 1
 4205 12755 12754 1
 4206 12755 12763 1
 4207 12756 12755 1
 4208 12764 12763 1
 4209 12764 12772 1
 4210 12765 12764 1
 4211 12773 12772 1
 4212 12773 12781 1
 4213 12774 12773 1
 4214 12782 12781 1
 4215 12782 12790 1
 4216 12783 12782 1
 4217 12791 12790 1
 4218 12791 12799 1
 4219 12792 12791 1
 4220 12800 12799 1
 4221 12800 12808 1
 4222 12801 12800 1
 4223 12809 12808 1
 4224 12809 12817 1
 4225 12810 12809 1
 4226 12818 12817 1
 4227 12818 12826 1
 4228 12819 12818 1
 4229 12827 12826 1
 4230 12827 12835 1
 4231 12828 12827 1
 4232 12836 12835 1
 4233 12836 12844 1
 4234 12837 12836 1
 4235 12845 12844 1
 4236 12845 12853 1
 4237 12846 12845 1
 4238 12854 12853 1
 4239 12854 12862 1
 4240 12855 12854 1
 4241 12863 12862 1
 4242 12863 12871 1
 4243 12864 12863 1
 4244 12872 12871 1
 4245 12872 12880 1
 4246 12873 12872 1
 4247 12881 12880 1
 4248 12881 12889 1
 4249 12882 12881 1
 4250 12890 12889 1
 4251 12890 12898 1
 4252 12891 12890 1
 4253 12899 12898 1
 4254 12899 12907 1
 4255 12900 12899 1
 4256 12908 12907 1
 4257 12908 12916 1
 4258 12909 12908 1
 4259 12917 12916 1
 4260 12917 12925 1
 4261 12918 12917 1
 4262 12926 12925 1
 4263 12926 12934 1
 4264 12927 12926 1
 4265 12935 12934 1
 4266 12935 12943 1
 4267 12936 12935 1
 4268 12944 12943 1
 4269 12944 12952 1
 4270 12945 12944 1
 4271 12953 12952 1
 4272 12954 12953 1
 4273 12962 12961 1
 4274 12962 12970 1
 4275 12963 12962 1
 4276 12971 12970 1
 4277 12971 12979 1
 4278 12972 12971 1
 4279 12980 12979 1
 4280 12980 12988 1
 4281 12981 12980 1
 4282 12989 12988 1
 4283 12989 12997 1
 4284 12990 12989 1
 4285 12998 12997 1
 4286 12998 13006 1
 4287 12999 12998 1
 4288 13007 13006 1
 4289 13007 13015 1
 4290 13008 13007 1
 4291 13016 13015 1
 4292 13016 13024 1
 4293 13017 13016 1
 4294 13025 13024 1
 4295 13025 13033 1
 4296 13026 13025 1
 4297 13034 13033 1
 4298 13034 13042 1
 4299 13035 13034 1
 4300 13043 13042 1
 4301 13043 13051 1
 4302 13044 13043 1
 4303 13052 13051 1
 4304 13052 13060 1
 4305 13053 13052 1
 4306 13061 13060 1
 4307 13061 13069 1
 4308 13062 13061 1
 4309 13070 13069 1
 4310 13070 13078 1
 4311 13071 13070 1
 4312 13079 13078 1
 4313 13079 13087 1
 4314 13080 13079 1
 4315 13088 13087 1
 4316 13088 13096 1
 4317 13089 13088 1
 4318 13097 13096 1
 4319 13097 13105 1
 4320 13098 13097 1
 4321 13106 13105 1
 4322 13106 13114 1
 4323 13107 13106 1
 4324 13115 13114 1
 4325 13115 13123 1
 4326 13116 13115 1
 4327 13124 13123 1
 4328 13124 13132 1
 4329 13125 13124 1
 4330 13133 13132 1
 4331 13133 13141 1
 4332 13134 13133 1
 4333 13142 13141 1
 4334 13142 13150 1
 4335 13143 13142 1
 4336 13151 13150 1
 4337 13151 13159 1
 4338 13152 13151 1
 4339 13160 13159 1
 4340 13160 13168 1
 4341 13161 13160 1
 4342 13169 13168 1
 4343 13169 13177 1
 4344 13170 13169 1
 4345 13178 13177 1
 4346 13178 13186 1
 4347 13179 13178 1
 4348 13187 13186 1
 4349 13187 13195 1
 4350 13188 13187 1
 4351 13196 13195 1
 4352 13196 13204 1
 4353 13197 13196 1
 4354 13205 13204 1
 4355 13205 13213 1
 4356 13206 13205 1
 4357 13214 13213 1
 4358 13214 13222 1
 4359 13215 13214 1
 4360 13223 13222 1
 4361 13224 13223 1
 4362 13232 13231 1
 4363 13232 13240 1
 4364 13233 13232 1
 4365 13241 13240 1
 4366 13241 13249 1
 4367 13242 13241 1
 4368 13250 13249 1
 4369 13250 13258 1
 4370 13251 13250 1
 4371 13259 13258 1
 4372 13259 13267 1
 4373 13260 13259 1
 4374 13268 13267 1
 4375 13268 13276 1
 4376 13269 13268 1
 4377 13277 13276 1
 4378 13277 13285 1
 4379 13278 13277 1
 4380 13286 13285 1
 4381 13286 13294 1
 4382 13287 13286 1
 4383 13295 13294 1
 4384 13295 13303 1
 4385 13296 13295 1
 4386 13304 13303 1
 4387 13304 13312 1
 4388 13305 13304 1
 4389 13313 13312 1
 4390 13313 13321 1
 4391 13314 13313 1
 4392 13322 13321 1
 4393 13322 13330 1
 4394 13323 13322 1
 4395 13331 13330 1
 4396 13331 13339 1
 4397 13332 13331 1
 4398 13340 13339 1
 4399 13340 13348 1
 4400 13341 13340 1
 4401 13349 13348 1
 4402 13349 13357 1
 4403 13350 13349 1
 4404 13358 13357 1
 4405 13358 13366 1
 4406 13359 13358 1
 4407 13367 13366 1
 4408 13367 13375 1
 4409 13368 13367 1
 4410 13376 13375 1
 4411 13376 13384 1
 4412 13377 13376 1
 4413 13385 13384 1
 4414 13385 13393 1
 4415 13386 13385 1
 4416 13394 13393 1
 4417 13394 13402 1
 4418 13395 13394 1
 4419 13403 13402 1
 4420 13403 13411 1
 4421 13404 13403 1
 4422 13412 13411 1
 4423 13412 13420 1
 4424 13413 13412 1
 4425 13421 13420 1
 4426 13421 13429 1
 4427 13422 13421 1
 4428 13430 13429 1
 4429 13430 13438 1
 4430 13431 13430 1
 4431 13439 13438 1
 4432 13439 13447 1
 4433 13440 13439 1
 4434 13448 13447 1
 4435 13448 13456 1
 4436 13449 13448 1
 4437 13457 13456 1
 4438 13457 13465 1
 4439 13458 13457 1
 4440 13466 13465 1
 4441 13466 13474 1
 4442 13467 13466 1
 4443 13475 13474 1
 4444 13475 13483 1
 4445 13476 13475 1
 4446 13484 13483 1
 4447 13484 13492 1
 4448 13485 13484 1
 4449 13493 13492 1
 4450 13494 13493 1
 4451 13502 13501 1
 4452 13502 13510 1
 4453 13503 13502 1
 4454 13511 13510 1
 4455 13511 13519 1
 4456 13512 13511 1
 4457 13520 13519 1
 4458 13520 13528 1
 4459 13521 13520 1
 4460 13529 13528 1
 4461 13529 13537 1
 4462 13530 13529 1
 4463 13538 13537 1
 4464 13538 13546 1
 4465 13539 13538 1
 4466 13547 13546 1
 4467 13547 13555 1
 4468 13548 13547 1
 4469 13556 13555 1
 4470 13556 13564 1
 4471 13557 13556 1
 4472 13565 13564 1
 4473 13565 13573 1
 4474 13566 13565 1
 4475 13574 13573 1
 4476 13574 13582 1
 4477 13575 13574 1
 4478 13583 13582 1
 4479 13583 13591 1
 4480 13584 13583 1
 4481 13592 13591 1
 4482 13592 13600 1
 4483 13593 13592 1
 4484 13601 13600 1
 4485 13601 13609 1
 4486 13602 13601 1
 4487 13610 13609 1
 4488 13610 13618 1
 4489 13611 13610 1
 4490 13619 13618 1
 4491 13619 13627 1
 4492 13620 13619 1
 4493 13628 13627 1
 4494 13628 13636 1
 4495 13629 13628 1
 4496 13637 13636 1
 4497 13637 13645 1
 4498 13638 13637 1
 4499 13646 13645 1
 4500 13646 13654 1
 4501 13647 13646 1
 4502 13655 13654 1
 4503 13655 13663 1
 4504 13656 13655 1
 4505 13664 13663 1
 4506 13664 13672 1
 4507 13665 13664 1
 4508 13673 13672 1
 4509 13673 13681 1
 4510 13674 13673 1
 4511 13682 13681 1
 4512 13682 13690 1
 4513 13683 13682 1
 4514 13691 13690 1
 4515 13691 13699 1
 4516 13692 13691 1
 4517 13700 13699 1
 4518 13700 13708 1
 4519 13701 13700 1
 4520 13709 13708 1
 4521 13709 13717 1
 4522 13710 13709 1
 4523 13718 13717 1
 4524 13718 13726 1
 4525 13719 13718 1
 4526 13727 13726 1
 4527 13727 13735 1
 4528 13728 13727 1
 4529 13736 13735 1
 4530 13736 13744 1
 4531 13737 13736 1
 4532 13745 13744 1
 4533 13745 13753 1
 4534 13746 13745 1
 4535 13754 13753 1
 4536 13754 13762 1
 4537 13755 13754 1
 4538 13763 13762 1
 4539 13764 13763 1
 4540 13772 13771 1
 4541 13772 13780 1
 4542 13773 13772 1
 4543 13781 13780 1
 4544 13781 13789 1
 4545 13782 13781 1
 4546 13790 13789 1
 4547 13790 13798 1
 4548 13791 13790 1
 4549 13799 13798 1
 4550 13799 13807 1
 4551 13800 13799 1
 4552 13808 13807 1
 4553 13808 13816 1
 4554 13809 13808 1
 4555 13817 13816 1
 4556 13817 13825 1
 4557 13818 13817 1
 4558 13826 13825 1
 4559 13826 13834 1
 4560 13827 13826 1
 4561 13835 13834 1
 4562 13835 13843 1
 4563 13836 13835 1
 4564 13844 13843 1
 4565 13844 13852 1
 4566 13845 13844 1
 4567 13853 13852 1
 4568 13853 13861 1
 4569 13854 13853 1
 4570 13862 13861 1
 4571 13862 13870 1
 4572 13863 13862 1
 4573 13871 13870 1
 4574 13871 13879 1
 4575 13872 13871 1
 4576 13880 13879 1
 4577 13880 13888 1
 4578 13881 13880 1
 4579 13889 13888 1
 4580 13889 13897 1
 4581 13890 13889 1
 4582 13898 13897 1
 4583 13898 13906 1
 4584 13899 13898 1
 4585 13907 13906 1
 4586 13907 13915 1
 4587 13908 13907 1
 4588 13916 13915 1
 4589 13916 13924 1
 4590 13917 13916 1
 4591 13925 13924 1
 4592 13925 13933 1
 4593 13926 13925 1
 4594 13934 13933 1
 4595 13934 13942 1
 4596 13935 13934 1
 4597 13943 13942 1
 4598 13943 13951 1
 4599 13944 13943 1
 4600 13952 13951 1
 4601 13952 13960 1
 4602 13953 13952 1
 4603 13961 13960 1
 4604 13961 13969 1
 4605 13962 13961 1
 4606 13970 13969 1
 4607 13970 13978 1
 4608 13971 13970 1
 4609 13979 13978 1
 4610 13979 13987 1
 4611 13980 13979 1
 4612 13988 13987 1
 4613 13988 13996 1
 4614 13989 13988 1
 4615 13997 13996 1
 4616 13997 14005 1
 4617 13998 13997 1
 4618 14006 14005 1
 4619 14006 14014 1
 4620 14007 14006 1
 4621 14015 14014 1
 4622 14015 14023 1
 4623 14016 14015 1
 4624 14024 14023 1
 4625 14024 14032 1
 4626 14025 14024 1
 4627 14033 14032 1
 4628 14034 14033 1
 4629 14042 14041 1
 4630 14042 14050 1
 4631 14043 14042 1
 4632 14051 14050 1
 4633 14051 14059 1
 4634 14052 14051 1
 4635 14060 14059 1
 4636 14060 14068 1
 4637 14061 14060 1
 4638 14069 14068 1
 4639 14069 14077 1
 4640 14070 14069 1
 4641 14078 14077 1
 4642 14078 14086 1
 4643 14079 14078 1
 4644 14087 14086 1
 4645 14087 14095 1
 4646 14088 14087 1
 4647 14096 14095 1
 4648 14096 14104 1
 4649 14097 14096 1
 4650 14105 14104 1
 4651 14105 14113 1
 4652 14106 14105 1
 4653 14114 14113 1
 4654 14114 14122 1
 4655 14115 14114 1
 4656 14123 14122 1
 4657 14123 14131 1
 4658 14124 14123 1
 4659 14132 14131 1
 4660 14132 14140 1
 4661 14133 14132 1
 4662 14141 14140 1
 4663 14141 14149 1
 4664 14142 14141 1
 4665 14150 14149 1
 4666 14150 14158 1
 4667 14151 14150 1
 4668 14159 14158 1
 4669 14159 14167 1
 4670 14160 14159 1
 4671 14168 14167 1
 4672 14168 14176 1
 4673 14169 14168 1
 4674 14177 14176 1
 4675 14177 14185 1
 4676 14178 14177 1
 4677 14186 14185 1
 4678 14186 14194 1
 4679 14187 14186 1
 4680 14195 14194 1
 4681 14195 14203 1
 4682 14196 14195 1
 4683 14204 14203 1
 4684 14204 14212 1
 4685 14205 14204 1
 4686 14213 14212 1
 4687 14213 14221 1
 4688 14214 14213 1
 4689 14222 14221 1
 4690 14222 14230 1
 4691 14223 14222 1
 4692 14231 14230 1
 4693 14231 14239 1
 4694 14232 14231 1
 4695 14240 14239 1
 4696 14240 14248 1
 4697 14241 14240 1
 4698 14249 14248 1
 4699 14249 14257 1
 4700 14250 14249 1
 4701 14258 14257 1
 4702 14258 14266 1
 4703 14259 14258 1
 4704 14267 14266 1
 4705 14267 14275 1
 4706 14268 14267 1
 4707 14276 14275 1
 4708 14276 14284 1
 4709 14277 14276 1
 4710 14285 14284 1
 4711 14285 14293 1
 4712 14286 14285 1
 4713 14294 14293 1
 4714 14294 14302 1
 4715 14295 14294 1
 4716 14303 14302 1
 4717 14304 14303 1
 4718 14312 14311 1
 4719 14312 14320 1
 4720 14313 14312 1
 4721 14321 14320 1
 4722 14321 14329 1
 4723 14322 14321 1
 4724 14330 14329 1
 4725 14330 14338 1
 4726 14331 14330 1
 4727 14339 14338 1
 4728 14339 14347 1
 4729 14340 14339 1
 4730 14348 14347 1
 4731 14348 14356 1
 4732 14349 14348 1
 4733 14357 14356 1
 4734 14357 14365 1
 4735 14358 14357 1
 4736 14366 14365 1
 4737 14366 14374 1
 4738 14367 14366 1
 4739 14375 14374 1
 4740 14375 14383 1
 4741 14376 14375 1
 4742 14384 14383 1
 4743 14384 14392 1
 4744 14385 14384 1
 4745 14393 14392 1
 4746 14393 14401 1
 4747 14394 14393 1
 4748 14402 14401 1
 4749 14402 14410 1
 4750 14403 14402 1
 4751 14411 14410 1
 4752 14411 14419 1
 4753 14412 14411 1
 4754 14420 14419 1
 4755 14420 14428 1
 4756 14421 14420 1
 4757 14429 14428 1
 4758 14429 14437 1
 4759 14430 14429 1
 4760 14438 14437 1
 4761 14438 14446 1
 4762 14439 14438 1
 4763 14447 14446 1
 4764 14447 14455 1
 4765 14448 14447 1
 4766 14456 14455 1
 4767 14456 14464 1
 4768 14457 14456 1
 4769 14465 14464 1
 4770 14465 14473 1
 4771 14466 14465 1
 4772 14474 14473 1
 4773 14474 14482 1
 4774 14475 14474 1
 4775 14483 14482 1
 4776 14483 14491 1
 4777 14484 14483 1
 4778 14492 14491 1
 4779 14492 14500 1
 4780 14493 14492 1
 4781 14501 14500 1
 4782 14501 14509 1
 4783 14502 14501 1
 4784 14510 14509 1
 4785 14510 14518 1
 4786 14511 14510 1
 4787 14519 14518 1
 4788 14519 14527 1
 4789 14520 14519 1
 4790 14528 14527 1
 4791 14528 14536 1
 4792 14529 14528 1
 4793 14537 14536 1
 4794 14537 14545 1
 4795 14538 14537 1
 4796 14546 14545 1
 4797 14546 14554 1
 4798 14547 14546 1
 4799 14555 14554 1
 4800 14555 14563 1
 4801 14556 14555 1
 4802 14564 14563 1
 4803 14564 14572 1
 4804 14565 14564 1
 4805 14573 14572 1
 4806 14574 14573 1
 4807 14582 14581 1
 4808 14582 14590 1
 4809 14583 14582 1
 4810 14591 14590 1
 4811 14591 14599 1
 4812 14592 14591 1
 4813 14600 14599 1
 4814 14600 14608 1
 4815 14601 14600 1
 4816 14609 14608 1
 4817 14609 14617 1
 4818 14610 14609 1
 4819 14618 14617 1
 4820 14618 14626 1
 4821 14619 14618 1
 4822 14627 14626 1
 4823 14627 14635 1
 4824 14628 14627 1
 4825 14636 14635 1
 4826 14636 14644 1
 4827 14637 14636 1
 4828 14645 14644 1
 4829 14645 14653 1
 4830 14646 14645 1
 4831 14654 14653 1
 4832 14654 14662 1
 4833 14655 14654 1
 4834 14663 14662 1
 4835 14663 14671 1
 4836 14664 14663 1
 4837 14672 14671 1
 4838 14672 14680 1
 4839 14673 14672 1
 4840 14681 14680 1
 4841 14681 14689 1
 4842 14682 14681 1
 4843 14690 14689 1
 4844 14690 14698 1
 4845 14691 14690 1
 4846 14699 14698 1
 4847 14699 14707 1
 4848 14700 14699 1
 4849 14708 14707 1
 4850 14708 14716 1
 4851 14709 14708 1
 4852 14717 14716 1
 4853 14717 14725 1
 4854 14718 14717 1
 4855 14726 14725 1
 4856 14726 14734 1
 4857 14727 14726 1
 4858 14735 14734 1
 4859 14735 14743 1
 4860 14736 14735 1
 4861 14744 14743 1
 4862 14744 14752 1
 4863 14745 14744 1
 4864 14753 14752 1
 4865 14753 14761 1
 4866 14754 14753 1
 4867 14762 14761 1
 4868 14762 14770 1
 4869 14763 14762 1
 4870 14771 14770 1
 4871 14771 14779 1
 4872 14772 14771 1
 4873 14780 14779 1
 4874 14780 14788 1
 4875 14781 14780 1
 4876 14789 14788 1
 4877 14789 14797 1
 4878 14790 14789 1
 4879 14798 14797 1
 4880 14798 14806 1
 4881 14799 14798 1
 4882 14807 14806 1
 4883 14807 14815 1
 4884 14808 14807 1
 4885 14816 14815 1
 4886 14816 14824 1
 4887 14817 14816 1
 4888 14825 14824 1
 4889 14825 14833 1
 4890 14826 14825 1
 4891 14834 14833 1
 4892 14834 14842 1
 4893 14835 14834 1
 4894 14843 14842 1
 4895 14844 14843 1
 4896     4     1 1
 4897     5     1 1
 4898     6     2 1
 4899     7     3 1
 4900     8     3 1
 4901     9     3 1
 4902    13    10 1
 4903    14    10 1
 4904    15    11 1
 4905    16    12 1
 4906    17    12 1
 4907    18    12 1
 4908    22    19 1
 4909    23    19 1
 4910    24    20 1
 4911    25    21 1
 4912    26    21 1
 4913    27    21 1
 4914    31    28 1
 4915    32    28 1
 4916    33    29 1
 4917    34    30 1
 4918    35    30 1
 4919    36    30 1
 4920    40    37 1
 4921    41    37 1
 4922    42    38 1
 4923    43    39 1
 4924    44    39 1
 4925    45    39 1
 4926    49    46 1
 4927    50    46 1
 4928    51    47 1
 4929    52    48 1
 4930    53    48 1
 4931    54    48 1
 4932    58    55 1
 4933    59    55 1
 4934    60    56 1
 4935    61    57 1
 4936    62    57 1
 4937    63    57 1
 4938    67    64 1
 4939    68    64 1
 4940    69    65 1
 4941    70    66 1
 4942    71    66 1
 4943    72    66 1
 4944    76    73 1
 4945    77    73 1
 4946    78    74 1
 4947    79    75 1
 4948    80    75 1
 4949    81    75 1
 4950    85    82 1
 4951    86    82 1
 4952    87    83 1
 4953    88    84 1
 4954    89    84 1
 4955    90    84 1
 4956    94    91 1
 4957    95    91 1
 4958    96    92 1
 4959    97    93 1
 4960    98    93 1
 4961    99    93 1
 4962   103   100 1
 4963   104   100 1
 4964   105   101 1
 4965   106   102 1
 4966   107   102 1
 4967   108   102 1
 4968   112   109 1
 4969   113   109 1
 4970   114   110 1
 4971   115   111 1
 4972   116   111 1
 4973   117   111 1
 4974   121   118 1
 4975   122   118 1
 4976   123   119 1
 4977   124   120 1
 4978   125   120 1
 4979   126   120 1
 4980   130   127 1
 4981   131   127 1
 4982   132   128 1
 4983   133   129 1
 4984   134   129 1
 4985   135   129 1
 4986   139   136 1
 4987   140   136 1
 4988   141   137 1
 4989   142   138 1
 4990   143   138 1
 4991   144   138 1
 4992   148   145 1
 4993   149   145 1
 4994   150   146 1
 4995   151   147 1
 4996   152   147 1
 4997   153   147 1
 4998   157   154 1
 4999   158   154 1
 5000   159   155 1
 5001   160   156 1
 5002   161   156 1
 5003   162   156 1
 5004   166   163 1
 5005   167   163 1
 5006   168   164 1
 5007   169   165 1
 5008   170   165 1
 5009   171   165 1
 5010   175   172 1
 5011   176   172 1
 5012   177   173 1
 5013   178   174 1
 5014   179   174 1
 5015   180   174 1
 5016   184   181 1
 5017   185   181 1
 5018   186   182 1
 5019   187   183 1
 5020   188   183 1
 5021   189   183 1
 5022   193   190 1
 5023   194   190 1
 5024   195   191 1
 5025   196   192 1
 5026   197   192 1
 5027   198   192 1
 5028   202   199 1
 5029   203   199 1
 5030   204   200 1
 5031   205   201 1
 5032   206   201 1
 5033   207   201 1
 5034   211   208 1
 5035   212   208 1
 5036   213   209 1
 5037   214   210 1
 5038   215   210 1
 5039   216   210 1
 5040   220   217 1
 5041   221   217 1
 5042   222   218 1
 5043   223   219 1
 5044   224   219 1
 5045   225   219 1
 5046   229   226 1
 5047   230   226 1
 5048   231   227 1
 5049   232   228 1
 5050   233   228 1
 5051   234   228 1
 5052   238   235 1
 5053   239   235 1
 5054   240   236 1
 5055   241   237 1
 5056   242   237 1
 5057   243   237 1
 5058   247   244 1
 5059   248   244 1
 5060   249   245 1
 5061   250   246 1
 5062   251   246 1
 5063   252   246 1
 5064   256   253 1
 5065   257   253 1
 5066   258   254 1
 5067   259   255 1
 5068   260   255 1
 5069   261   255 1
 5070   265   262 1
 5071   266   262 1
 5072   267   263 1
 5073   268   264 1
 5074   269   264 1
 5075   270   264 1
 5076   274   271 1
 5077   275   271 1
 5078   276   272 1
 5079   277   273 1
 5080   278   273 1
 5081   279   273 1
 5082   283   280 1
 5083   284   280 1
 5084   285   281 1
 5085   286   282 1
 5086   287   282 1
 5087   288   282 1
 5088   292   289 1
 5089   293   289 1
 5090   294   290 1
 5091   295   291 1
 5092   296   291 1
 5093   297   291 1
 5094   301   298 1
 5095   302   298 1
 5096   303   299 1
 5097   304   300 1
 5098   305   300 1
 5099   306   300 1
 5100   310   307 1
 5101   311   307 1
 5102   312   308 1
 5103   313   309 1
 5104   314   309 1
 5105   315   309 1
 5106   319   316 1
 5107   320   316 1
 5108   321   317 1
 5109   322   318 1
 5110   323   318 1
 5111   324   318 1
 5112   328   325 1
 5113   329   325 1
 5114   330   326 1
 5115   331   327 1
 5116   332   327 1
 5117   333   327 1
 5118   337   334 1
 5119   338   334 1
 5120   339   335 1
 5121   340   336 1
 5122   341   336 1
 5123   342   336 1
 5124   346   343 1
 5125   347   343 1
 5126   348   344 1
 5127   349   345 1
 5128   350   345 1
 5129   351   345 1
 5130   355   352 1
 5131   356   352 1
 5132   357   353 1
 5133   358   354 1
 5134   359   354 1
 5135   360   354 1
 5136   364   361 1
 5137   365   361 1
 5138   366   362 1
 5139   367   363 1
 5140   368   363 1
 5141   369   363 1
 5142   373   370 1
 5143   374   370 1
 5144   375   371 1
 5145   376   372 1
 5146   377   372 1
 5147   378   372 1
 5148   382   379 1
 5149   383   379 1
 5150   384   380 1
 5151   385   381 1
 5152   386   381 1
 5153   387   381 1
 5154   391   388 1
 5155   392   388 1
 5156   393   389 1
 5157   394   390 1
 5158   395   390 1
 5159   396   390 1
 5160   400   397 1
 5161   401   397 1
 5162   402   398 1
 5163   403   399 1
 5164   404   399 1
 5165   405   399 1
 5166   409   406 1
 5167   410   406 1
 5168   411   407 1
 5169   412   408 1
 5170   413   408 1
 5171   414   408 1
 5172   418   415 1
 5173   419   415 1
 5174   420   416 1
 5175   421   417 1
 5176   422   417 1
 5177   423   417 1
 5178   427   424 1
 5179   428   424 1
 5180   429   425 1
 5181   430   426 1
 5182   431   426 1
 5183   432   426 1
 5184   436   433 1
 5185   437   433 1
 5186   438   434 1
 5187   439   435 1
 5188   440   435 1
 5189   441   435 1
 5190   445   442 1
 5191   446   442 1
 5192   447   443 1
 5193   448   444 1
 5194   449   444 1
 5195   450   444 1
 5196   454   451 1
 5197   455   451 1
 5198   456   452 1
 5199   457   453 1
 5200   458   453 1
 5201   459   453 1
 5202   463   460 1
 5203   464   460 1
 5204   465   461 1
 5205   466   462 1
 5206   467   462 1
 5207   468   462 1
 5208   472   469 1
 5209   473   469 1
 5210   474   470 1
 5211   475   471 1
 5212   476   471 1
 5213   477   471 1
 5214   481   478 1
 5215   482   478 1
 5216   483   479 1
 5217   484   480 1
 5218   485   480 1
 5219   486   480 1
 5220   490   487 1
 5221   491   487 1
 5222   492   488 1
 5223   493   489 1
 5224   494   489 1
 5225   495   489 1
 5226   499   496 1
 5227   500   496 1
 5228   501   497 1
 5229   502   498 1
 5230   503   498 1
 5231   504   498 1
 5232   508   505 1
 5233   509   505 1
 5234   510   506 1
 5235   511   507 1
 5236   512   507 1
 5237   513   507 1
 5238   517   514 1
 5239   518   514 1
 5240   519   515 1
 5241   520   516 1
 5242   521   516 1
 5243   522   516 1
 5244   526   523 1
 5245   527   523 1
 5246   528   524 1
 5247   529   525 1
 5248   530   525 1
 5249   531   525 1
 5250   535   532 1
 5251   536   532 1
 5252   537   533 1
 5253   538   534 1
 5254   539   534 1
 5255   540   534 1
 5256   544   541 1
 5257   545   541 1
 5258   546   542 1
 5259   547   543 1
 5260   548   543 1
 5261   549   543 1
 5262   553   550 1
 5263   554   550 1
 5264   555   551 1
 5265   556   552 1
 5266   557   552 1
 5267   558   552 1
 5268   562   559 1
 5269   563   559 1
 5270   564   560 1
 5271   565   561 1
 5272   566   561 1
 5273   567   561 1
 5274   571   568 1
 5275   572   568 1
 5276   573   569 1
 5277   574   570 1
 5278   575   570 1
 5279   576   570 1
 5280   580   577 1
 5281   581   577 1
 5282   582   578 1
 5283   583   579 1
 5284   584   579 1
 5285   585   579 1
 5286   589   586 1
 5287   590   586 1
 5288   591   587 1
 5289   592   588 1
 5290   593   588 1
 5291   594   588 1
 5292   598   595 1
 5293   599   595 1
 5294   600   596 1
 5295   601   597 1
 5296   602   597 1
 5297   603   597 1
 5298   607   604 1
 5299   608   604 1
 5300   609   605 1
 5301   610   606 1
 5302   611   606 1
 5303   612   606 1
 5304   616   613 1
 5305   617   613 1
 5306   618   614 1
 5307   619   615 1
 5308   620   615 1
 5309   621   615 1
 5310   625   622 1
 5311   626   622 1
 5312   627   623 1
 5313   628   624 1
 5314   629   624 1
 5315   630   624 1
 5316   634   631 1
 5317   635   631 1
 5318   636   632 1
 5319   637   633 1
 5320   638   633 1
 5321   639   633 1
 5322   643   640 1
 5323   644   640 1
 5324   645   641 1
 5325   646   642 1
 5326   647   642 1
 5327   648   642 1
 5328   652   649 1
 5329   653   649 1
 5330   654   650 1
 5331   655   651 1
 5332   656   651 1
 5333   657   651 1
 5334   661   658 1
 5335   662   658 1
 5336   663   659 1
 5337   664   660 1
 5338   665   660 1
 5339   666   660 1
 5340   670   667 1
 5341   671   667 1
 5342   672   668 1
 5343   673   669 1
 5344   674   669 1
 5345   675   669 1
 5346   679   676 1
 5347   680   676 1
 5348   681   677 1
 5349   682   678 1
 5350   683   678 1
 5351   684   678 1
 5352   688   685 1
 5353   689   685 1
 5354   690   686 1
 5355   691   687 1
 5356   692   687 1
 5357   693   687 1
 5358   697   694 1
 5359   698   694 1
 5360   699   695 1
 5361   700   696 1
 5362   701   696 1
 5363   702   696 1
 5364   706   703 1
 5365   707   703 1
 5366   708   704 1
 5367   709   705 1
 5368   710   705 1
 5369   711   705 1
 5370   715   712 1
 5371   716   712 1
 5372   717   713 1
 5373   718   714 1
 5374   719   714 1
 5375   720   714 1
 5376   724   721 1
 5377   725   721 1
 5378   726   722 1
 5379   727   723 1
 5380   728   723 1
 5381   729   723 1
 5382   733   730 1
 5383   734   730 1
 5384   735   731 1
 5385   736   732 1
 5386   737   732 1
 5387   738   732 1
 5388   742   739 1
 5389   743   739 1
 5390   744   740 1
 5391   745   741 1
 5392   746   741 1
 5393   747   741 1
 5394   751   748 1
 5395   752   748 1
 5396   753   749 1
 5397   754   750 1
 5398   755   750 1
 5399   756   750 1
 5400   760   757 1
 5401   761   757 1
 5402   762   758 1
 5403   763   759 1
 5404   764   759 1
 5405   765   759 1
 5406   769   766 1
 5407   770   766 1
 5408   771   767 1
 5409   772   768 1
 5410   773   768 1
 5411   774   768 1
 5412   778   775 1
 5413   779   775 1
 5414   780   776 1
 5415   781   777 1
 5416   782   777 1
 5417   783   777 1
 5418   787   784 1
 5419   788   784 1
 5420   789   785 1
 5421   790   786 1
 5422   791   786 1
 5423   792   786 1
 5424   796   793 1
 5425   797   793 1
 5426   798   794 1
 5427   799   795 1
 5428   800   795 1
 5429   801   795 1
 5430   805   802 1
 5431   806   802 1
 5432   807   803 1
 5433   808   804 1
 5434   809   804 1
 5435   810   804 1
 5436   814   811 1
 5437   815   811 1
 5438   816   812 1
 5439   817   813 1
 5440   818   813 1
 5441   819   813 1
 5442   823   820 1
 5443   824   820 1
 5444   825   821 1
 5445   826   822 1
 5446   827   822 1
 5447   828   822 1
 5448   832   829 1
 5449   833   829 1
 5450   834   830 1
 5451   835   831 1
 5452   836   831 1
 5453   837   831 1
 5454   841   838 1
 5455   842   838 1
 5456   843   839 1
 5457   844   840 1
 5458   845   840 1
 5459   846   840 1
 5460   850   847 1
 5461   851   847 1
 5462   852   848 1
 5463   853   849 1
 5464   854   849 1
 5465   855   849 1
 5466   859   856 1
 5467   860   856 1
 5468   861   857 1
 5469   862   858 1
 5470   863   858 1
 5471   864   858 1
 5472   868   865 1
 5473   869   865 1
 5474   870   866 1
 5475   871   867 1
 5476   872   867 1
 5477   873   867 1
 5478   877   874 1
 5479   878   874 1
 5480   879   875 1
 5481   880   876 1
 5482   881   876 1
 5483   882   876 1
 5484   886   883 1
 5485   887   883 1
 5486   888   884 1
 5487   889   885 1
 5488   890   885 1
 5489   891   885 1
 5490   895   892 1
 5491   896   892 1
 5492   897   893 1
 5493   898   894 1
 5494   899   894 1
 5495   900   894 1
 5496   904   901 1
 5497   905   901 1
 5498   906   902 1
 5499   907   903 1
 5500   908   903 1
 5501   909   903 1
 5502   913   910 1
 5503   914   910 1
 5504   915   911 1
 5505   916   912 1
 5506   917   912 1
 5507   918   912 1
 5508   922   919 1
 5509   923   919 1
 5510   924   920 1
 5511   925   921 1
 5512   926   921 1
 5513   927   921 1
 5514   931   928 1
 5515   932   928 1
 5516   933   929 1
 5517   934   930 1
 5518   935   930 1
 5519   936   930 1
 5520   940   937 1
 5521   941   937 1
 5522   942   938 1
 5523   943   939 1
 5524   944   939 1
 5525   945   939 1
 5526   949   946 1
 5527   950   946 1
 5528   951   947 1
 5529   952   948 1
 5530   953   948 1
 5531   954   948 1
 5532   958   955 1
 5533   959   955 1
 5534   960   956 1
 5535   961   957 1
 5536   962   957 1
 5537   963   957 1
 5538   967   964 1
 5539   968   964 1
 5540   969   965 1
 5541   970   966 1
 5542   971   966 1
 5543   972   966 1
 5544   976   973 1
 5545   977   973 1
 5546   978   974 1
 5547   979   975 1
 5548   980   975 1
 5549   981   975 1
 5550   985   982 1
 5551   986   982 1
 5552   987   983 1
 5553   988   984 1
 5554   989   984 1
 5555   990   984 1
 5556   994   991 1
 5557   995   991 1
 5558   996   992 1
 5559   997   993 1
 5560   998   993 1
 5561   999   993 1
 5562  1003  1000 1
 5563  1004  1000 1
 5564  1005  1001 1
 5565  1006  1002 1
 5566  1007  1002 1
 5567  1008  1002 1
 5568  1012  1009 1
 5569  1013  1009 1
 5570  1014  1010 1
 5571  1015  1011 1
 5572  1016  1011 1
 5573  1017  1011 1
 5574  1021  1018 1
 5575  1022  1018 1
 5576  1023  1019 1
 5577  1024  1020 1
 5578  1025  1020 1
 5579  1026  1020 1
 5580  1030  1027 1
 5581  1031  1027 1
 5582  1032  1028 1
 5583  1033  1029 1
 5584  1034  1029 1
 5585  1035  1029 1
 5586  1039  1036 1
 5587  1040  1036 1
 5588  1041  1037 1
 5589  1042  1038 1
 5590  1043  1038 1
 5591  1044  1038 1
 5592  1048  1045 1
 5593  1049  1045 1
 5594  1050  1046 1
 5595  1051  1047 1
 5596  1052  1047 1
 5597  1053  1047 1
 5598  1057  1054 1
 5599  1058  1054 1
 5600  1059  1055 1
 5601  1060  1056 1
 5602  1061  1056 1
 5603  1062  1056 1
 5604  1066  1063 1
 5605  1067  1063 1
 5606  1068  1064 1
 5607  1069  1065 1
 5608  1070  1065 1
 5609  1071  1065 1
 5610  1075  1072 1
 5611  1076  1072 1
 5612  1077  1073 1
 5613  1078  1074 1
 5614  1079  1074 1
 5615  1080  1074 1
 5616  1084  1081 1
 5617  1085  1081 1
 5618  1086  1082 1
 5619  1087  1083 1
 5620  1088  1083 1
 5621  1089  1083 1
 5622  1093  1090 1
 5623  1094  1090 1
 5624  1095  1091 1
 5625  1096  1092 1
 5626  1097  1092 1
 5627  1098  1092 1
 5628  1102  1099 1
 5629  1103  1099 1
 5630  1104  1100 1
 5631  1105  1101 1
 5632  1106  1101 1
 5633  1107  1101 1
 5634  1111  1108 1
 5635  1112  1108 1
 5636  1113  1109 1
 5637  1114  1110 1
 5638  1115  1110 1
 5639  1116  1110 1
 5640  1120  1117 1
 5641  1121  1117 1
 5642  1122  1118 1
 5643  1123  1119 1
 5644  1124  1119 1
 5645  1125  1119 1
 5646  1129  1126 1
 5647  1130  1126 1
 5648  1131  1127 1
 5649  1132  1128 1
 5650  1133  1128 1
 5651  1134  1128 1
 5652  1138  1135 1
 5653  1139  1135 1
 5654  1140  1136 1
 5655  1141  1137 1
 5656  1142  1137 1
 5657  1143  1137 1
 5658  1147  1144 1
 5659  1148  1144 1
 5660  1149  1145 1
 5661  1150  1146 1
 5662  1151  1146 1
 5663  1152  1146 1
 5664  1156  1153 1
 5665  1157  1153 1
 5666  1158  1154 1
 5667  1159  1155 1
 5668  1160  1155 1
 5669  1161  1155 1
 5670  1165  1162 1
 5671  1166  1162 1
 5672  1167  1163 1
 5673  1168  1164 1
 5674  1169  1164 1
 5675  1170  1164 1
 5676  1174  1171 1
 5677  1175  1171 1
 5678  1176  1172 1
 5679  1177  1173 1
 5680  1178  1173 1
 5681  1179  1173 1
 5682  1183  1180 1
 5683  1184  1180 1
 5684  1185  1181 1
 5685  1186  1182 1
 5686  1187  1182 1
 5687  1188  1182 1
 5688  1192  1189 1
 5689  1193  1189 1
 5690  1194  1190 1
 5691  1195  1191 1
 5692  1196  1191 1
 5693  1197  1191 1
 5694  1201  1198 1
 5695  1202  1198 1
 5696  1203  1199 1
 5697  1204  1200 1
 5698  1205  1200 1
 5699  1206  1200 1
 5700  1210  1207 1
 5701  1211  1207 1
 5702  1212  1208 1
 5703  1213  1209 1
 5704  1214  1209 1
 5705  1215  1209 1
 5706  1219  1216 1
 5707  1220  1216 1
 5708  1221  1217 1
 5709  1222  1218 1
 5710  1223  1218 1
 5711  1224  1218 1
 5712  1228  1225 1
 5713  1229  1225 1
 5714  1230  1226 1
 5715  1231  1227 1
 5716  1232  1227 1
 5717  1233  1227 1
 5718  1237  1234 1
 5719  1238  1234 1
 5720  1239  1235 1
 5721  1240  1236 1
 5722  1241  1236 1
 5723  1242  1236 1
 5724  1246  1243 1
 5725  1247  1243 1
 5726  1248  1244 1
 5727  1249  1245 1
 5728  1250  1245 1
 5729  1251  1245 1
 5730  1255  1252 1
 5731  1256  1252 1
 5732  1257  1253 1
 5733  1258  1254 1
 5734  1259  1254 1
 5735  1260  1254 1
 5736  1264  1261 1
 5737  1265  1261 1
 5738  1266  1262 1
 5739  1267  1263 1
 5740  1268  1263 1
 5741  1269  1263 1
 5742  1273  1270 1
 5743  1274  1270 1
 5744  1275  1271 1
 5745  1276  1272 1
 5746  1277  1272 1
 5747  1278  1272 1
 5748  1282  1279 1
 5749  1283  1279 1
 5750  1284  1280 1
 5751  1285  1281 1
 5752  1286  1281 1
 5753  1287  1281 1
 5754  1291  1288 1
 5755  1292  1288 1
 5756  1293  1289 1
 5757  1294  1290 1
 5758  1295  1290 1
 5759  1296  1290 1
 5760  1300  1297 1
 5761  1301  1297 1
 5762  1302  1298 1
 5763  1303  1299 1
 5764  1304  1299 1
 5765  1305  1299 1
 5766  1309  1306 1
 5767  1310  1306 1
 5768  1311  1307 1
 5769  1312  1308 1
 5770  1313  1308 1
 5771  1314  1308 1
 5772  1318  1315 1
 5773  1319  1315 1
 5774  1320  1316 1
 5775  1321  1317 1
 5776  1322  1317 1
 5777  1323  1317 1
 5778  1327  1324 1
 5779  1328  1324 1
 5780  1329  1325 1
 5781  1330  1326 1
 5782  1331  1326 1
 5783  1332  1326 1
 5784  1336  1333 1
 5785  1337  1333 1
 5786  1338  1334 1
 5787  1339  1335 1
 5788  1340  1335 1
 5789  1341  1335 1
 5790  1345  1342 1
 5791  1346  1342 1
 5792  1347  1343 1
 5793  1348  1344 1
 5794  1349  1344 1
 5795  1350  1344 1
 5796  1354  1351 1
 5797  1355  1351 1
 5798  1356  1352 1
 5799  1357  1353 1
 5800  1358  1353 1
 5801  1359  1353 1
 5802  1363  1360 1
 5803  1364  1360 1
 5804  1365  1361 1
 5805  1366  1362 1
 5806  1367  1362 1
 5807  1368  1362 1
 5808  1372  1369 1
 5809  1373  1369 1
 5810  1374  1370 1
 5811  1375  1371 1
 5812  1376  1371 1
 5813  1377  1371 1
 5814  1381  1378 1
 5815  1382  1378 1
 5816  1383  1379 1
 5817  1384  1380 1
 5818  1385  1380 1
 5819  1386  1380 1
 5820  1390  1387 1
 5821  1391  1387 1
 5822  1392  1388 1
 5823  1393  1389 1
 5824  1394  1389 1
 5825  1395  1389 1
 5826  1399  1396 1
 5827  1400  1396 1
 5828  1401  1397 1
 5829  1402  1398 1
 5830  1403  1398 1
 5831  1404  1398 1
 5832  1408  1405 1
 5833  1409  1405 1
 5834  1410  1406 1
 5835  1411  1407 1
 5836  1412  1407 1
 5837  1413  1407 1
 5838  1417  1414 1
 5839  1418  1414 1
 5840  1419  1415 1
 5841  1420  1416 1
 5842  1421  1416 1
 5843  1422  1416 1
 5844  1426  1423 1
 5845  1427  1423 1
 5846  1428  1424 1
 5847  1429  1425 1
 5848  1430  1425 1
 5849  1431  1425 1
 5850  1435  1432 1
 5851  1436  1432 1
 5852  1437  1433 1
 5853  1438  1434 1
 5854  1439  1434 1
 5855  1440  1434 1
 5856  1444  1441 1
 5857  1445  1441 1
 5858  1446  1442 1
 5859  1447  1443 1
 5860  1448  1443 1
 5861  1449  1443 1
 5862  1453  1450 1
 5863  1454  1450 1
 5864  1455  1451 1
 5865  1456  1452 1
 5866  1457  1452 1
 5867  1458  1452 1
 5868  1462  1459 1
 5869  1463  1459 1
 5870  1464  1460 1
 5871  1465  1461 1
 5872  1466  1461 1
 5873  1467  1461 1
 5874  1471  1468 1
 5875  1472  1468 1
 5876  1473  1469 1
 5877  1474  1470 1
 5878  1475  1470 1
 5879  1476  1470 1
 5880  1480  1477 1
 5881  1481  1477 1
 5882  1482  1478 1
 5883  1483  1479 1
 5884  1484  1479 1
 5885  1485  1479 1
 5886  1489  1486 1
 5887  1490  1486 1
 5888  1491  1487 1
 5889  1492  1488 1
 5890  1493  1488 1
 5891  1494  1488 1
 5892  1498  1495 1
 5893  1499  1495 1
 5894  1500  1496 1
 5895  1501  1497 1
 5896  1502  1497 1
 5897  1503  1497 1
 5898  1507  1504 1
 5899  1508  1504 1
 5900  1509  1505 1
 5901  1510  1506 1
 5902  1511  1506 1
 5903  1512  1506 1
 5904  1516  1513 1
 5905  1517  1513 1
 5906  1518  1514 1
 5907  1519  1515 1
 5908  1520  1515 1
 5909  1521  1515 1
 5910  1525  1522 1
 5911  1526  1522 1
 5912  1527  1523 1
 5913  1528  1524 1
 5914  1529  1524 1
 5915  1530  1524 1
 5916  1534  1531 1
 5917  1535  1531 1
 5918  1536  1532 1
 5919  1537  1533 1
 5920  1538  1533 1
 5921  1539  1533 1
 5922  1543  1540 1
 5923  1544  1540 1
 5924  1545  1541 1
 5925  1546  1542 1
 5926  1547  1542 1
 5927  1548  1542 1
 5928  1552  1549 1
 5929  1553  1549 1
 5930  1554  1550 1
 5931  1555  1551 1
 5932  1556  1551 1
 5933  1557  1551 1
 5934  1561  1558 1
 5935  1562  1558 1
 5936  1563  1559 1
 5937  1564  1560 1
 5938  1565  1560 1
 5939  1566  1560 1
 5940  1570  1567 1
 5941  1571  1567 1
 5942  1572  1568 1
 5943  1573  1569 1
 5944  1574  1569 1
 5945  1575  1569 1
 5946  1579  1576 1
 5947  1580  1576 1
 5948  1581  1577 1
 5949  1582  1578 1
 5950  1583  1578 1
 5951  1584  1578 1
 5952  1588  1585 1
 5953  1589  1585 1
 5954  1590  1586 1
 5955  1591  1587 1
 5956  1592  1587 1
 5957  1593  1587 1
 5958  1597  1594 1
 5959  1598  1594 1
 5960  1599  1595 1
 5961  1600  1596 1
 5962  1601  1596 1
 5963  1602  1596 1
 5964  1606  1603 1
 5965  1607  1603 1
 5966  1608  1604 1
 5967  1609  1605 1
 5968  1610  1605 1
 5969  1611  1605 1
 5970  1615  1612 1
 5971  1616  1612 1
 5972  1617  1613 1
 5973  1618  1614 1
 5974  1619  1614 1
 5975  1620  1614 1
 5976  1624  1621 1
 5977  1625  1621 1
 5978  1626  1622 1
 5979  1627  1623 1
 5980  1628  1623 1
 5981  1629  1623 1
 5982  1633  1630 1
 5983  1634  1630 1
 5984  1635  1631 1
 5985  1636  1632 1
 5986  1637  1632 1
 5987  1638  1632 1
 5988  1642  1639 1
 5989  1643  1639 1
 5990  1644  1640 1
 5991  1645  1641 1
 5992  1646  1641 1
 5993  1647  1641 1
 5994  1651  1648 1
 5995  1652  1648 1
 5996  1653  1649 1
 5997  1654  1650 1
 5998  1655  1650 1
 5999  1656  1650 1
 6000  1660  1657 1
 6001  1661  1657 1
 6002  1662  1658 1
 6003  1663  1659 1
 6004  1664  1659 1
 6005  1665  1659 1
 6006  1669  1666 1
 6007  1670  1666 1
 6008  1671  1667 1
 6009  1672  1668 1
 6010  1673  1668 1
 6011  1674  1668 1
 6012  1678  1675 1
 6013  1679  1675 1
 6014  1680  1676 1
 6015  1681  1677 1
 6016  1682  1677 1
 6017  1683  1677 1
 6018  1687  1684 1
 6019  1688  1684 1
 6020  1689  1685 1
 6021  1690  1686 1
 6022  1691  1686 1
 6023  1692  1686 1
 6024  1696  1693 1
 6025  1697  1693 1
 6026  1698  1694 1
 6027  1699  1695 1
 6028  1700  1695 1
 6029  1701  1695 1
 6030  1705  1702 1
 6031  1706  1702 1
 6032  1707  1703 1
 6033  1708  1704 1
 6034  1709  1704 1
 6035  1710  1704 1
 6036  1714  1711 1
 6037  1715  1711 1
 6038  1716  1712 1
 6039  1717  1713 1
 6040  1718  1713 1
 6041  1719  1713 1
 6042  1723  1720 1
 6043  1724  1720 1
 6044  1725  1721 1
 6045  1726  1722 1
 6046  1727  1722 1
 6047  1728  1722 1
 6048  1732  1729 1
 6049  1733  1729 1
 6050  1734  1730 1
 6051  1735  1731 1
 6052  1736  1731 1
 6053  1737  1731 1
 6054  1741  1738 1
 6055  1742  1738 1
 6056  1743  1739 1
 6057  1744  1740 1
 6058  1745  1740 1
 6059  1746  1740 1
 6060  1750  1747 1
 6061  1751  1747 1
 6062  1752  1748 1
 6063  1753  1749 1
 6064  1754  1749 1
 6065  1755  1749 1
 6066  1759  1756 1
 6067  1760  1756 1
 6068  1761  1757 1
 6069  1762  1758 1
 6070  1763  1758 1
 6071  1764  1758 1
 6072  1768  1765 1
 6073  1769  1765 1
 6074  1770  1766 1
 6075  1771  1767 1
 6076  1772  1767 1
 6077  1773  1767 1
 6078  1777  1774 1
 6079  1778  1774 1
 6080  1779  1775 1
 6081  1780  1776 1
 6082  1781  1776 1
 6083  1782  1776 1
 6084  1786  1783 1
 6085  1787  1783 1
 6086  1788  1784 1
 6087  1789  1785 1
 6088  1790  1785 1
 6089  1791  1785 1
 6090  1795  1792 1
 6091  1796  1792 1
 6092  1797  1793 1
 6093  1798  1794 1
 6094  1799  1794 1
 6095  1800  1794 1
 6096  1804  1801 1
 6097  1805  1801 1
 6098  1806  1802 1
 6099  1807  1803 1
 6100  1808  1803 1
 6101  1809  1803 1
 6102  1813  1810 1
 6103  1814  1810 1
 6104  1815  1811 1
 6105  1816  1812 1
 6106  1817  1812 1
 6107  1818  1812 1
 6108  1822  1819 1
 6109  1823  1819 1
 6110  1824  1820 1
 6111  1825  1821 1
 6112  1826  1821 1
 6113  1827  1821 1
 6114  1831  1828 1
 6115  1832  1828 1
 6116  1833  1829 1
 6117  1834  1830 1
 6118  1835  1830 1
 6119  1836  1830 1
 6120  1840  1837 1
 6121  1841  1837 1
 6122  1842  1838 1
 6123  1843  1839 1
 6124  1844  1839 1
 6125  1845  1839 1
 6126  1849  1846 1
 6127  1850  1846 1
 6128  1851  1847 1
 6129  1852  1848 1
 6130  1853  1848 1
 6131  1854  1848 1
 6132  1858  1855 1
 6133  1859  1855 1
 6134  1860  1856 1
 6135  1861  1857 1
 6136  1862  1857 1
 6137  1863  1857 1
 6138  1867  1864 1
 6139  1868  1864 1
 6140  1869  1865 1
 6141  1870  1866 1
 6142  1871  1866 1
 6143  1872  1866 1
 6144  1876  1873 1
 6145  1877  1873 1
 6146  1878  1874 1
 6147  1879  1875 1
 6148  1880  1875 1
 6149  1881  1875 1
 6150  1885  1882 1
 6151  1886  1882 1
 6152  1887  1883 1
 6153  1888  1884 1
 6154  1889  1884 1
 6155  1890  1884 1
 6156  1894  1891 1
 6157  1895  1891 1
 6158  1896  1892 1
 6159  1897  1893 1
 6160  1898  1893 1
 6161  1899  1893 1
 6162  1903  1900 1
 6163  1904  1900 1
 6164  1905  1901 1
 6165  1906  1902 1
 6166  1907  1902 1
 6167  1908  1902 1
 6168  1912  1909 1
 6169  1913  1909 1
 6170  1914  1910 1
 6171  1915  1911 1
 6172  1916  1911 1
 6173  1917  1911 1
 6174  1921  1918 1
 6175  1922  1918 1
 6176  1923  1919 1
 6177  1924  1920 1
 6178  1925  1920 1
 6179  1926  1920 1
 6180  1930  1927 1
 6181  1931  1927 1
 6182  1932  1928 1
 6183  1933  1929 1
 6184  1934  1929 1
 6185  1935  1929 1
 6186  1939  1936 1
 6187  1940  1936 1
 6188  1941  1937 1
 6189  1942  1938 1
 6190  1943  1938 1
 6191  1944  1938 1
 6192  1948  1945 1
 6193  1949  1945 1
 6194  1950  1946 1
 6195  1951  1947 1
 6196  1952  1947 1
 6197  1953  1947 1
 6198  1957  1954 1
 6199  1958  1954 1
 6200  1959  1955 1
 6201  1960  1956 1
 6202  1961  1956 1
 6203  1962  1956 1
 6204  1966  1963 1
 6205  1967  1963 1
 6206  1968  1964 1
 6207  1969  1965 1
 6208  1970  1965 1
 6209  1971  1965 1
 6210  1975  1972 1
 6211  1976  1972 1
 6212  1977  1973 1
 6213  1978  1974 1
 6214  1979  1974 1
 6215  1980  1974 1
 6216  1984  1981 1
 6217  1985  1981 1
 6218  1986  1982 1
 6219  1987  1983 1
 6220  1988  1983 1
 6221  1989  1983 1
 6222  1993  1990 1
 6223  1994  1990 1
 6224  1995  1991 1
 6225  1996  1992 1
 6226  1997  1992 1
 6227  1998  1992 1
 6228  2002  1999 1
 6229  2003  1999 1
 6230  2004  2000 1
 6231  2005  2001 1
 6232  2006  2001 1
 6233  2007  2001 1
 6234  2011  2008 1
 6235  2012  2008 1
 6236  2013  2009 1
 6237  2014  2010 1
 6238  2015  2010 1
 6239  2016  2010 1
 6240  2020  2017 1
 6241  2021  2017 1
 6242  2022  2018 1
 6243  2023  2019 1
 6244  2024  2019 1
 6245  2025  2019 1
 6246  2029  2026 1
 6247  2030  2026 1
 6248  2031  2027 1
 6249  2032  2028 1
 6250  2033  2028 1
 6251  2034  2028 1
 6252  2038  2035 1
 6253  2039  2035 1
 6254  2040  2036 1
 6255  2041  2037 1
 6256  2042  2037 1
 6257  2043  2037 1
 6258  2047  2044 1
 6259  2048  2044 1
 6260  2049  2045 1
 6261  2050  2046 1
 6262  2051  2046 1
 6263  2052  2046 1
 6264  2056  2053 1
 6265  2057  2053 1
 6266  2058  2054 1
 6267  2059  2055 1
 6268  2060  2055 1
 6269  2061  2055 1
 6270  2065  2062 1
 6271  2066  2062 1
 6272  2067  2063 1
 6273  2068  2064 1
 6274  2069  2064 1
 6275  2070  2064 1
 6276  2074  2071 1
 6277  2075  2071 1
 6278  2076  2072 1
 6279  2077  2073 1
 6280  2078  2073 1
 6281  2079  2073 1
 6282  2083  2080 1
 6283  2084  2080 1
 6284  2085  2081 1
 6285  2086  2082 1
 6286  2087  2082 1
 6287  2088  2082 1
 6288  2092  2089 1
 6289  2093  2089 1
 6290  2094  2090 1
 6291  2095  2091 1
 6292  2096  2091 1
 6293  2097  2091 1
 6294  2101  2098 1
 6295  2102  2098 1
 6296  2103  2099 1
 6297  2104  2100 1
 6298  2105  2100 1
 6299  2106  2100 1
 6300  2110  2107 1
 6301  2111  2107 1
 6302  2112  2108 1
 6303  2113  2109 1
 6304  2114  2109 1
 6305  2115  2109 1
 6306  2119  2116 1
 6307  2120  2116 1
 6308  2121  2117 1
 6309  2122  2118 1
 6310  2123  2118 1
 6311  2124  2118 1
 6312  2128  2125 1
 6313  2129  2125 1
 6314  2130  2126 1
 6315  2131  2127 1
 6316  2132  2127 1
 6317  2133  2127 1
 6318  2137  2134 1
 6319  2138  2134 1
 6320  2139  2135 1
 6321  2140  2136 1
 6322  2141  2136 1
 6323  2142  2136 1
 6324  2146  2143 1
 6325  2147  2143 1
 6326  2148  2144 1
 6327  2149  2145 1
 6328  2150  2145 1
 6329  2151  2145 1
 6330  2155  2152 1
 6331  2156  2152 1
 6332  2157  2153 1
 6333  2158  2154 1
 6334  2159  2154 1
 6335  2160  2154 1
 6336  2164  2161 1
 6337  2165  2161 1
 6338  2166  2162 1
 6339  2167  2163 1
 6340  2168  2163 1
 6341  2169  2163 1
 6342  2173  2170 1
 6343  2174  2170 1
 6344  2175  2171 1
 6345  2176  2172 1
 6346  2177  2172 1
 6347  2178  2172 1
 6348  2182  2179 1
 6349  2183  2179 1
 6350  2184  2180 1
 6351  2185  2181 1
 6352  2186  2181 1
 6353  2187  2181 1
 6354  2191  2188 1
 6355  2192  2188 1
 6356  2193  2189 1
 6357  2194  2190 1
 6358  2195  2190 1
 6359  2196  2190 1
 6360  2200  2197 1
 6361  2201  2197 1
 6362  2202  2198 1
 6363  2203  2199 1
 6364  2204  2199 1
 6365  2205  2199 1
 6366  2209  2206 1
 6367  2210  2206 1
 6368  2211  2207 1
 6369  2212  2208 1
 6370  2213  2208 1
 6371  2214  2208 1
 6372  2218  2215 1
 6373  2219  2215 1
 6374  2220  2216 1
 6375  2221  2217 1
 6376  2222  2217 1
 6377  2223  2217 1
 6378  2227  2224 1
 6379  2228  2224 1
 6380  2229  2225 1
 6381  2230  2226 1
 6382  2231  2226 1
 6383  2232  2226 1
 6384  2236  2233 1
 6385  2237  2233 1
 6386  2238  2234 1
 6387  2239  2235 1
 6388  2240  2235 1
 6389  2241  2235 1
 6390  2245  2242 1
 6391  2246  2242 1
 6392  2247  2243 1
 6393  2248  2244 1
 6394  2249  2244 1
 6395  2250  2244 1
 6396  2254  2251 1
 6397  2255  2251 1
 6398  2256  2252 1
 6399  2257  2253 1
 6400  2258  2253 1
 6401  2259  2253 1
 6402  2263  2260 1
 6403  2264  2260 1
 6404  2265  2261 1
 6405  2266  2262 1
 6406  2267  2262 1
 6407  2268  2262 1
 6408  2272  2269 1
 6409  2273  2269 1
 6410  2274  2270 1
 6411  2275  2271 1
 6412  2276  2271 1
 6413  2277  2271 1
 6414  2281  2278 1
 6415  2282  2278 1
 6416  2283  2279 1
 6417  2284  2280 1
 6418  2285  2280 1
 6419  2286  2280 1
 6420  2290  2287 1
 6421  2291  2287 1
 6422  2292  2288 1
 6423  2293  2289 1
 6424  2294  2289 1
 6425  2295  2289 1
 6426  2299  2296 1
 6427  2300  2296 1
 6428  2301  2297 1
 6429  2302  2298 1
 6430  2303  2298 1
 6431  2304  2298 1
 6432  2308  2305 1
 6433  2309  2305 1
 6434  2310  2306 1
 6435  2311  2307 1
 6436  2312  2307 1
 6437  2313  2307 1
 6438  2317  2314 1
 6439  2318  2314 1
 6440  2319  2315 1
 6441  2320  2316 1
 6442  2321  2316 1
 6443  2322  2316 1
 6444  2326  2323 1
 6445  2327  2323 1
 6446  2328  2324 1
 6447  2329  2325 1
 6448  2330  2325 1
 6449  2331  2325 1
 6450  2335  2332 1
 6451  2336  2332 1
 6452  2337  2333 1
 6453  2338  2334 1
 6454  2339  2334 1
 6455  2340  2334 1
 6456  2344  2341 1
 6457  2345  2341 1
 6458  2346  2342 1
 6459  2347  2343 1
 6460  2348  2343 1
 6461  2349  2343 1
 6462  2353  2350 1
 6463  2354  2350 1
 6464  2355  2351 1
 6465  2356  2352 1
 6466  2357  2352 1
 6467  2358  2352 1
 6468  2362  2359 1
 6469  2363  2359 1
 6470  2364  2360 1
 6471  2365  2361 1
 6472  2366  2361 1
 6473  2367  2361 1
 6474  2371  2368 1
 6475  2372  2368 1
 6476  2373  2369 1
 6477  2374  2370 1
 6478  2375  2370 1
 6479  2376  2370 1
 6480  2380  2377 1
 6481  2381  2377 1
 6482  2382  2378 1
 6483  2383  2379 1
 6484  2384  2379 1
 6485  2385  2379 1
 6486  2389  2386 1
 6487  2390  2386 1
 6488  2391  2387 1
 6489  2392  2388 1
 6490  2393  2388 1
 6491  2394  2388 1
 6492  2398  2395 1
 6493  2399  2395 1
 6494  2400  2396 1
 6495  2401  2397 1
 6496  2402  2397 1
 6497  2403  2397 1
 6498  2407  2404 1
 6499  2408  2404 1
 6500  2409  2405 1
 6501  2410  2406 1
 6502  2411  2406 1
 6503  2412  2406 1
 6504  2416  2413 1
 6505  2417  2413 1
 6506  2418  2414 1
 6507  2419  2415 1
 6508  2420  2415 1
 6509  2421  2415 1
 6510  2425  2422 1
 6511  2426  2422 1
 6512  2427  2423 1
 6513  2428  2424 1
 6514  2429  2424 1
 6515  2430  2424 1
 6516  2434  2431 1
 6517  2435  2431 1
 6518  2436  2432 1
 6519  2437  2433 1
 6520  2438  2433 1
 6521  2439  2433 1
 6522  2443  2440 1
 6523  2444  2440 1
 6524  2445  2441 1
 6525  2446  2442 1
 6526  2447  2442 1
 6527  2448  2442 1
 6528  2452  2449 1
 6529  2453  2449 1
 6530  2454  2450 1
 6531  2455  2451 1
 6532  2456  2451 1
 6533  2457  2451 1
 6534  2461  2458 1
 6535  2462  2458 1
 6536  2463  2459 1
 6537  2464  2460 1
 6538  2465  2460 1
 6539  2466  2460 1
 6540  2470  2467 1
 6541  2471  2467 1
 6542  2472  2468 1
 6543  2473  2469 1
 6544  2474  2469 1
 6545  2475  2469 1
 6546  2479  2476 1
 6547  2480  2476 1
 6548  2481  2477 1
 6549  2482  2478 1
 6550  2483  2478 1
 6551  2484  2478 1
 6552  2488  2485 1
 6553  2489  2485 1
 6554  2490  2486 1
 6555  2491  2487 1
 6556  2492  2487 1
 6557  2493  2487 1
 6558  2497  2494 1
 6559  2498  2494 1
 6560  2499  2495 1
 6561  2500  2496 1
 6562  2501  2496 1
 6563  2502  2496 1
 6564  2506  2503 1
 6565  2507  2503 1
 6566  2508  2504 1
 6567  2509  2505 1
 6568  2510  2505 1
 6569  2511  2505 1
 6570  2515  2512 1
 6571  2516  2512 1
 6572  2517  2513 1
 6573  2518  2514 1
 6574  2519  2514 1
 6575  2520  2514 1
 6576  2524  2521 1
 6577  2525  2521 1
 6578  2526  2522 1
 6579  2527  2523 1
 6580  2528  2523 1
 6581  2529  2523 1
 6582  2533  2530 1
 6583  2534  2530 1
 6584  2535  2531 1
 6585  2536  2532 1
 6586  2537  2532 1
 6587  2538  2532 1
 6588  2542  2539 1
 6589  2543  2539 1
 6590  2544  2540 1
 6591  2545  2541 1
 6592  2546  2541 1
 6593  2547  2541 1
 6594  2551  2548 1
 6595  2552  2548 1
 6596  2553  2549 1
 6597  2554  2550 1
 6598  2555  2550 1
 6599  2556  2550 1
 6600  2560  2557 1
 6601  2561  2557 1
 6602  2562  2558 1
 6603  2563  2559 1
 6604  2564  2559 1
 6605  2565  2559 1
 6606  2569  2566 1
 6607  2570  2566 1
 6608  2571  2567 1
 6609  2572  2568 1
 6610  2573  2568 1
 6611  2574  2568 1
 6612  2578  2575 1
 6613  2579  2575 1
 6614  2580  2576 1
 6615  2581  2577 1
 6616  2582  2577 1
 6617  2583  2577 1
 6618  2587  2584 1
 6619  2588  2584 1
 6620  2589  2585 1
 6621  2590  2586 1
 6622  2591  2586 1
 6623  2592  2586 1
 6624  2596  2593 1
 6625  2597  2593 1
 6626  2598  2594 1
 6627  2599  2595 1
 6628  2600  2595 1
 6629  2601  2595 1
 6630  2605  2602 1
 6631  2606  2602 1
 6632  2607  2603 1
 6633  2608  2604 1
 6634  2609  2604 1
 6635  2610  2604 1
 6636  2614  2611 1
 6637  2615  2611 1
 6638  2616  2612 1
 6639  2617  2613 1
 6640  2618  2613 1
 6641  2619  2613 1
 6642  2623  2620 1
 6643  2624  2620 1
 6644  2625  2621 1
 6645  2626  2622 1
 6646  2627  2622 1
 6647  2628  2622 1
 6648  2632  2629 1
 6649  2633  2629 1
 6650  2634  2630 1
 6651  2635  2631 1
 6652  2636  2631 1
 6653  2637  2631 1
 6654  2641  2638 1
 6655  2642  2638 1
 6656  2643  2639 1
 6657  2644  2640 1
 6658  2645  2640 1
 6659  2646  2640 1
 6660  2650  2647 1
 6661  2651  2647 1
 6662  2652  2648 1
 6663  2653  2649 1
 6664  2654  2649 1
 6665  2655  2649 1
 6666  2659  2656 1
 6667  2660  2656 1
 6668  2661  2657 1
 6669  2662  2658 1
 6670  2663  2658 1
 6671  2664  2658 1
 6672  2668  2665 1
 6673  2669  2665 1
 6674  2670  2666 1
 6675  2671  2667 1
 6676  2672  2667 1
 6677  2673  2667 1
 6678  2677  2674 1
 6679  2678  2674 1
 6680  2679  2675 1
 6681  2680  2676 1
 6682  2681  2676 1
 6683  2682  2676 1
 6684  2686  2683 1
 6685  2687  2683 1
 6686  2688  2684 1
 6687  2689  2685 1
 6688  2690  2685 1
 6689  2691  2685 1
 6690  2695  2692 1
 6691  2696  2692 1
 6692  2697  2693 1
 6693  2698  2694 1
 6694  2699  2694 1
 6695  2700  2694 1
 6696  2704  2701 1
 6697  2705  2701 1
 6698  2706  2702 1
 6699  2707  2703 1
 6700  2708  2703 1
 6701  2709  2703 1
 6702  2713  2710 1
 6703  2714  2710 1
 6704  2715  2711 1
 6705  2716  2712 1
 6706  2717  2712 1
 6707  2718  2712 1
 6708  2722  2719 1
 6709  2723  2719 1
 6710  2724  2720 1
 6711  2725  2721 1
 6712  2726  2721 1
 6713  2727  2721 1
 6714  2731  2728 1
 6715  2732  2728 1
 6716  2733  2729 1
 6717  2734  2730 1
 6718  2735  2730 1
 6719  2736  2730 1
 6720  2740  2737 1
 6721  2741  2737 1
 6722  2742  2738 1
 6723  2743  2739 1
 6724  2744  2739 1
 6725  2745  2739 1
 6726  2749  2746 1
 6727  2750  2746 1
 6728  2751  2747 1
 6729  2752  2748 1
 6730  2753  2748 1
 6731  2754  2748 1
 6732  2758  2755 1
 6733  2759  2755 1
 6734  2760  2756 1
 6735  2761  2757 1
 6736  2762  2757 1
 6737  2763  2757 1
 6738  2767  2764 1
 6739  2768  2764 1
 6740  2769  2765 1
 6741  2770  2766 1
 6742  2771  2766 1
 6743  2772  2766 1
 6744  2776  2773 1
 6745  2777  2773 1
 6746  2778  2774 1
 6747  2779  2775 1
 6748  2780  2775 1
 6749  2781  2775 1
 6750  2785  2782 1
 6751  2786  2782 1
 6752  2787  2783 1
 6753  2788  2784 1
 6754  2789  2784 1
 6755  2790  2784 1
 6756  2794  2791 1
 6757  2795  2791 1
 6758  2796  2792 1
 6759  2797  2793 1
 6760  2798  2793 1
 6761  2799  2793 1
 6762  2803  2800 1
 6763  2804  2800 1
 6764  2805  2801 1
 6765  2806  2802 1
 6766  2807  2802 1
 6767  2808  2802 1
 6768  2812  2809 1
 6769  2813  2809 1
 6770  2814  2810 1
 6771  2815  2811 1
 6772  2816  2811 1
 6773  2817  2811 1
 6774  2821  2818 1
 6775  2822  2818 1
 6776  2823  2819 1
 6777  2824  2820 1
 6778  2825  2820 1
 6779  2826  2820 1
 6780  2830  2827 1
 6781  2831  2827 1
 6782  2832  2828 1
 6783  2833  2829 1
 6784  2834  2829 1
 6785  2835  2829 1
 6786  2839  2836 1
 6787  2840  2836 1
 6788  2841  2837 1
 6789  2842  2838 1
 6790  2843  2838 1
 6791  2844  2838 1
 6792  2848  2845 1
 6793  2849  2845 1
 6794  2850  2846 1
 6795  2851  2847 1
 6796  2852  2847 1
 6797  2853  2847 1
 6798  2857  2854 1
 6799  2858  2854 1
 6800  2859  2855 1
 6801  2860  2856 1
 6802  2861  2856 1
 6803  2862  2856 1
 6804  2866  2863 1
 6805  2867  2863 1
 6806  2868  2864 1
 6807  2869  2865 1
 6808  2870  2865 1
 6809  2871  2865 1
 6810  2875  2872 1
 6811  2876  2872 1
 6812  2877  2873 1
 6813  2878  2874 1
 6814  2879  2874 1
 6815  2880  2874 1
 6816  2884  2881 1
 6817  2885  2881 1
 6818  2886  2882 1
 6819  2887  2883 1
 6820  2888  2883 1
 6821  2889  2883 1
 6822  2893  2890 1
 6823  2894  2890 1
 6824  2895  2891 1
 6825  2896  2892 1
 6826  2897  2892 1
 6827  2898  2892 1
 6828  2902  2899 1
 6829  2903  2899 1
 6830  2904  2900 1
 6831  2905  2901 1
 6832  2906  2901 1
 6833  2907  2901 1
 6834  2911  2908 1
 6835  2912  2908 1
 6836  2913  2909 1
 6837  2914  2910 1
 6838  2915  2910 1
 6839  2916  2910 1
 6840  2920  2917 1
 6841  2921  2917 1
 6842  2922  2918 1
 6843  2923  2919 1
 6844  2924  2919 1
 6845  2925  2919 1
 6846  2929  2926 1
 6847  2930  2926 1
 6848  2931  2927 1
 6849  2932  2928 1
 6850  2933  2928 1
 6851  2934  2928 1
 6852  2938  2935 1
 6853  2939  2935 1
 6854  2940  2936 1
 6855  2941  2937 1
 6856  2942  2937 1
 6857  2943  2937 1
 6858  2947  2944 1
 6859  2948  2944 1
 6860  2949  2945 1
 6861  2950  2946 1
 6862  2951  2946 1
 6863  2952  2946 1
 6864  2956  2953 1
 6865  2957  2953 1
 6866  2958  2954 1
 6867  2959  2955 1
 6868  2960  2955 1
 6869  2961  2955 1
 6870  2965  2962 1
 6871  2966  2962 1
 6872  2967  2963 1
 6873  2968  2964 1
 6874  2969  2964 1
 6875  2970  2964 1
 6876  2974  2971 1
 6877  2975  2971 1
 6878  2976  2972 1
 6879  2977  2973 1
 6880  2978  2973 1
 6881  2979  2973 1
 6882  2983  2980 1
 6883  2984  2980 1
 6884  2985  2981 1
 6885  2986  2982 1
 6886  2987  2982 1
 6887  2988  2982 1
 6888  2992  2989 1
 6889  2993  2989 1
 6890  2994  2990 1
 6891  2995  2991 1
 6892  2996  2991 1
 6893  2997  2991 1
 6894  3001  2998 1
 6895  3002  2998 1
 6896  3003  2999 1
 6897  3004  3000 1
 6898  3005  3000 1
 6899  3006  3000 1
 6900  3010  3007 1
 6901  3011  3007 1
 6902  3012  3008 1
 6903  3013  3009 1
 6904  3014  3009 1
 6905  3015  3009 1
 6906  3019  3016 1
 6907  3020  3016 1
 6908  3021  3017 1
 6909  3022  3018 1
 6910  3023  3018 1
 6911  3024  3018 1
 6912  3028  3025 1
 6913  3029  3025 1
 6914  3030  3026 1
 6915  3031  3027 1
 6916  3032  3027 1
 6917  3033  3027 1
 6918  3037  3034 1
 6919  3038  3034 1
 6920  3039  3035 1
 6921  3040  3036 1
 6922  3041  3036 1
 6923  3042  3036 1
 6924  3046  3043 1
 6925  3047  3043 1
 6926  3048  3044 1
 6927  3049  3045 1
 6928  3050  3045 1
 6929  3051  3045 1
 6930  3055  3052 1
 6931  3056  3052 1
 6932  3057  3053 1
 6933  3058  3054 1
 6934  3059  3054 1
 6935  3060  3054 1
 6936  3064  3061 1
 6937  3065  3061 1
 6938  3066  3062 1
 6939  3067  3063 1
 6940  3068  3063 1
 6941  3069  3063 1
 6942  3073  3070 1
 6943  3074  3070 1
 6944  3075  3071 1
 6945  3076  3072 1
 6946  3077  3072 1
 6947  3078  3072 1
 6948  3082  3079 1
 6949  3083  3079 1
 6950  3084  3080 1
 6951  3085  3081 1
 6952  3086  3081 1
 6953  3087  3081 1
 6954  3091  3088 1
 6955  3092  3088 1
 6956  3093  3089 1
 6957  3094  3090 1
 6958  3095  3090 1
 6959  3096  3090 1
 6960  3100  3097 1
 6961  3101  3097 1
 6962  3102  3098 1
 6963  3103  3099 1
 6964  3104  3099 1
 6965  3105  3099 1
 6966  3109  3106 1
 6967  3110  3106 1
 6968  3111  3107 1
 6969  3112  3108 1
 6970  3113  3108 1
 6971  3114  3108 1
 6972  3118  3115 1
 6973  3119  3115 1
 6974  3120  3116 1
 6975  3121  3117 1
 6976  3122  3117 1
 6977  3123  3117 1
 6978  3127  3124 1
 6979  3128  3124 1
 6980  3129  3125 1
 6981  3130  3126 1
 6982  3131  3126 1
 6983  3132  3126 1
 6984  3136  3133 1
 6985  3137  3133 1
 6986  3138  3134 1
 6987  3139  3135 1
 6988  3140  3135 1
 6989  3141  3135 1
 6990  3145  3142 1
 6991  3146  3142 1
 6992  3147  3143 1
 6993  3148  3144 1
 6994  3149  3144 1
 6995  3150  3144 1
 6996  3154  3151 1
 6997  3155  3151 1
 6998  3156  3152 1
 6999  3157  3153 1
 7000  3158  3153 1
 7001  3159  3153 1
 7002  3163  3160 1
 7003  3164  3160 1
 7004  3165  3161 1
 7005  3166  3162 1
 7006  3167  3162 1
 7007  3168  3162 1
 7008  3172  3169 1
 7009  3173  3169 1
 7010  3174  3170 1
 7011  3175  3171 1
 7012  3176  3171 1
 7013  3177  3171 1
 7014  3181  3178 1
 7015  3182  3178 1
 7016  3183  3179 1
 7017  3184  3180 1
 7018  3185  3180 1
 7019  3186  3180 1
 7020  3190  3187 1
 7021  3191  3187 1
 7022  3192  3188 1
 7023  3193  3189 1
 7024  3194  3189 1
 7025  3195  3189 1
 7026  3199  3196 1
 7027  3200  3196 1
 7028  3201  3197 1
 7029  3202  3198 1
 7030  3203  3198 1
 7031  3204  3198 1
 7032  3208  3205 1
 7033  3209  3205 1
 7034  3210  3206 1
 7035  3211  3207 1
 7036  3212  3207 1
 7037  3213  3207 1
 7038  3217  3214 1
 7039  3218  3214 1
 7040  3219  3215 1
 7041  3220  3216 1
 7042  3221  3216 1
 7043  3222  3216 1
 7044  3226  3223 1
 7045  3227  3223 1
 7046  3228  3224 1
 7047  3229  3225 1
 7048  3230  3225 1
 7049  3231  3225 1
 7050  3235  3232 1
 7051  3236  3232 1
 7052  3237  3233 1
 7053  3238  3234 1
 7054  3239  3234 1
 7055  3240  3234 1
 7056  3244  3241 1
 7057  3245  3241 1
 7058  3246  3242 1
 7059  3247  3243 1
 7060  3248  3243 1
 7061  3249  3243 1
 7062  3253  3250 1
 7063  3254  3250 1
 7064  3255  3251 1
 7065  3256  3252 1
 7066  3257  3252 1
 7067  3258  3252 1
 7068  3262  3259 1
 7069  3263  3259 1
 7070  3264  3260 1
 7071  3265  3261 1
 7072  3266  3261 1
 7073  3267  3261 1
 7074  3271  3268 1
 7075  3272  3268 1
 7076  3273  3269 1
 7077  3274  3270 1
 7078  3275  3270 1
 7079  3276  3270 1
 7080  3280  3277 1
 7081  3281  3277 1
 7082  3282  3278 1
 7083  3283  3279 1
 7084  3284  3279 1
 7085  3285  3279 1
 7086  3289  3286 1
 7087  3290  3286 1
 7088  3291  3287 1
 7089  3292  3288 1
 7090  3293  3288 1
 7091  3294  3288 1
 7092  3298  3295 1
 7093  3299  3295 1
 7094  3300  3296 1
 7095  3301  3297 1
 7096  3302  3297 1
 7097  3303  3297 1
 7098  3307  3304 1
 7099  3308  3304 1
 7100  3309  3305 1
 7101  3310  3306 1
 7102  3311  3306 1
 7103  3312  3306 1
 7104  3316  3313 1
 7105  3317  3313 1
 7106  3318  3314 1
 7107  3319  3315 1
 7108  3320  3315 1
 7109  3321  3315 1
 7110  3325  3322 1
 7111  3326  3322 1
 7112  3327  3323 1
 7113  3328  3324 1
 7114  3329  3324 1
 7115  3330  3324 1
 7116  3334  3331 1
 7117  3335  3331 1
 7118  3336  3332 1
 7119  3337  3333 1
 7120  3338  3333 1
 7121  3339  3333 1
 7122  3343  3340 1
 7123  3344  3340 1
 7124  3345  3341 1
 7125  3346  3342 1
 7126  3347  3342 1
 7127  3348  3342 1
 7128  3352  3349 1
 7129  3353  3349 1
 7130  3354  3350 1
 7131  3355  3351 1
 7132  3356  3351 1
 7133  3357  3351 1
 7134  3361  3358 1
 7135  3362  3358 1
 7136  3363  3359 1
 7137  3364  3360 1
 7138  3365  3360 1
 7139  3366  3360 1
 7140  3370  3367 1
 7141  3371  3367 1
 7142  3372  3368 1
 7143  3373  3369 1
 7144  3374  3369 1
 7145  3375  3369 1
 7146  3379  3376 1
 7147  3380  3376 1
 7148  3381  3377 1
 7149  3382  3378 1
 7150  3383  3378 1
 7151  3384  3378 1
 7152  3388  3385 1
 7153  3389  3385 1
 7154  3390  3386 1
 7155  3391  3387 1
 7156  3392  3387 1
 7157  3393  3387 1
 7158  3397  3394 1
 7159  3398  3394 1
 7160  3399  3395 1
 7161  3400  3396 1
 7162  3401  3396 1
 7163  3402  3396 1
 7164  3406  3403 1
 7165  3407  3403 1
 7166  3408  3404 1
 7167  3409  3405 1
 7168  3410  3405 1
 7169  3411  3405 1
 7170  3415  3412 1
 7171  3416  3412 1
 7172  3417  3413 1
 7173  3418  3414 1
 7174  3419  3414 1
 7175  3420  3414 1
 7176  3424  3421 1
 7177  3425  3421 1
 7178  3426  3422 1
 7179  3427  3423 1
 7180  3428  3423 1
 7181  3429  3423 1
 7182  3433  3430 1
 7183  3434  3430 1
 7184  3435  3431 1
 7185  3436  3432 1
 7186  3437  3432 1
 7187  3438  3432 1
 7188  3442  3439 1
 7189  3443  3439 1
 7190  3444  3440 1
 7191  3445  3441 1
 7192  3446  3441 1
 7193  3447  3441 1
 7194  3451  3448 1
 7195  3452  3448 1
 7196  3453  3449 1
 7197  3454  3450 1
 7198  3455  3450 1
 7199  3456  3450 1
 7200  3460  3457 1
 7201  3461  3457 1
 7202  3462  3458 1
 7203  3463  3459 1
 7204  3464  3459 1
 7205  3465  3459 1
 7206  3469  3466 1
 7207  3470  3466 1
 7208  3471  3467 1
 7209  3472  3468 1
 7210  3473  3468 1
 7211  3474  3468 1
 7212  3478  3475 1
 7213  3479  3475 1
 7214  3480  3476 1
 7215  3481  3477 1
 7216  3482  3477 1
 7217  3483  3477 1
 7218  3487  3484 1
 7219  3488  3484 1
 7220  3489  3485 1
 7221  3490  3486 1
 7222  3491  3486 1
 7223  3492  3486 1
 7224  3496  3493 1
 7225  3497  3493 1
 7226  3498  3494 1
 7227  3499  3495 1
 7228  3500  3495 1
 7229  3501  3495 1
 7230  3505  3502 1
 7231  3506  3502 1
 7232  3507  3503 1
 7233  3508  3504 1
 7234  3509  3504 1
 7235  3510  3504 1
 7236  3514  3511 1
 7237  3515  3511 1
 7238  3516  3512 1
 7239  3517  3513 1
 7240  3518  3513 1
 7241  3519  3513 1
 7242  3523  3520 1
 7243  3524  3520 1
 7244  3525  3521 1
 7245  3526  3522 1
 7246  3527  3522 1
 7247  3528  3522 1
 7248  3532  3529 1
 7249  3533  3529 1
 7250  3534  3530 1
 7251  3535  3531 1
 7252  3536  3531 1
 7253  3537  3531 1
 7254  3541  3538 1
 7255  3542  3538 1
 7256  3543  3539 1
 7257  3544  3540 1
 7258  3545  3540 1
 7259  3546  3540 1
 7260  3550  3547 1
 7261  3551  3547 1
 7262  3552  3548 1
 7263  3553  3549 1
 7264  3554  3549 1
 7265  3555  3549 1
 7266  3559  3556 1
 7267  3560  3556 1
 7268  3561  3557 1
 7269  3562  3558 1
 7270  3563  3558 1
 7271  3564  3558 1
 7272  3568  3565 1
 7273  3569  3565 1
 7274  3570  3566 1
 7275  3571  3567 1
 7276  3572  3567 1
 7277  3573  3567 1
 7278  3577  3574 1
 7279  3578  3574 1
 7280  3579  3575 1
 7281  3580  3576 1
 7282  3581  3576 1
 7283  3582  3576 1
 7284  3586  3583 1
 7285  3587  3583 1
 7286  3588  3584 1
 7287  3589  3585 1
 7288  3590  3585 1
 7289  3591  3585 1
 7290  3595  3592 1
 7291  3596  3592 1
 7292  3597  3593 1
 7293  3598  3594 1
 7294  3599  3594 1
 7295  3600  3594 1
 7296  3604  3601 1
 7297  3605  3601 1
 7298  3606  3602 1
 7299  3607  3603 1
 7300  3608  3603 1
 7301  3609  3603 1
 7302  3613  3610 1
 7303  3614  3610 1
 7304  3615  3611 1
 7305  3616  3612 1
 7306  3617  3612 1
 7307  3618  3612 1
 7308  3622  3619 1
 7309  3623  3619 1
 7310  3624  3620 1
 7311  3625  3621 1
 7312  3626  3621 1
 7313  3627  3621 1
 7314  3631  3628 1
 7315  3632  3628 1
 7316  3633  3629 1
 7317  3634  3630 1
 7318  3635  3630 1
 7319  3636  3630 1
 7320  3640  3637 1
 7321  3641  3637 1
 7322  3642  3638 1
 7323  3643  3639 1
 7324  3644  3639 1
 7325  3645  3639 1
 7326  3649  3646 1
 7327  3650  3646 1
 7328  3651  3647 1
 7329  3652  3648 1
 7330  3653  3648 1
 7331  3654  3648 1
 7332  3658  3655 1
 7333  3659  3655 1
 7334  3660  3656 1
 7335  3661  3657 1
 7336  3662  3657 1
 7337  3663  3657 1
 7338  3667  3664 1
 7339  3668  3664 1
 7340  3669  3665 1
 7341  3670  3666 1
 7342  3671  3666 1
 7343  3672  3666 1
 7344  3676  3673 1
 7345  3677  3673 1
 7346  3678  3674 1
 7347  3679  3675 1
 7348  3680  3675 1
 7349  3681  3675 1
 7350  3685  3682 1
 7351  3686  3682 1
 7352  3687  3683 1
 7353  3688  3684 1
 7354  3689  3684 1
 7355  3690  3684 1
 7356  3694  3691 1
 7357  3695  3691 1
 7358  3696  3692 1
 7359  3697  3693 1
 7360  3698  3693 1
 7361  3699  3693 1
 7362  3703  3700 1
 7363  3704  3700 1
 7364  3705  3701 1
 7365  3706  3702 1
 7366  3707  3702 1
 7367  3708  3702 1
 7368  3712  3709 1
 7369  3713  3709 1
 7370  3714  3710 1
 7371  3715  3711 1
 7372  3716  3711 1
 7373  3717  3711 1
 7374  3721  3718 1
 7375  3722  3718 1
 7376  3723  3719 1
 7377  3724  3720 1
 7378  3725  3720 1
 7379  3726  3720 1
 7380  3730  3727 1
 7381  3731  3727 1
 7382  3732  3728 1
 7383  3733  3729 1
 7384  3734  3729 1
 7385  3735  3729 1
 7386  3739  3736 1
 7387  3740  3736 1
 7388  3741  3737 1
 7389  3742  3738 1
 7390  3743  3738 1
 7391  3744  3738 1
 7392  3748  3745 1
 7393  3749  3745 1
 7394  3750  3746 1
 7395  3751  3747 1
 7396  3752  3747 1
 7397  3753  3747 1
 7398  3757  3754 1
 7399  3758  3754 1
 7400  3759  3755 1
 7401  3760  3756 1
 7402  3761  3756 1
 7403  3762  3756 1
 7404  3766  3763 1
 7405  3767  3763 1
 7406  3768  3764 1
 7407  3769  3765 1
 7408  3770  3765 1
 7409  3771  3765 1
 7410  3775  3772 1
 7411  3776  3772 1
 7412  3777  3773 1
 7413  3778  3774 1
 7414  3779  3774 1
 7415  3780  3774 1
 7416  3784  3781 1
 7417  3785  3781 1
 7418  3786  3782 1
 7419  3787  3783 1
 7420  3788  3783 1
 7421  3789  3783 1
 7422  3793  3790 1
 7423  3794  3790 1
 7424  3795  3791 1
 7425  3796  3792 1
 7426  3797  3792 1
 7427  3798  3792 1
 7428  3802  3799 1
 7429  3803  3799 1
 7430  3804  3800 1
 7431  3805  3801 1
 7432  3806  3801 1
 7433  3807  3801 1
 7434  3811  3808 1
 7435  3812  3808 1
 7436  3813  3809 1
 7437  3814  3810 1
 7438  3815  3810 1
 7439  3816  3810 1
 7440  3820  3817 1
 7441  3821  3817 1
 7442  3822  3818 1
 7443  3823  3819 1
 7444  3824  3819 1
 7445  3825  3819 1
 7446  3829  3826 1
 7447  3830  3826 1
 7448  3831  3827 1
 7449  3832  3828 1
 7450  3833  3828 1
 7451  3834  3828 1
 7452  3838  3835 1
 7453  3839  3835 1
 7454  3840  3836 1
 7455  3841  3837 1
 7456  3842  3837 1
 7457  3843  3837 1
 7458  3847  3844 1
 7459  3848  3844 1
 7460  3849  3845 1
 7461  3850  3846 1
 7462  3851  3846 1
 7463  3852  3846 1
 7464  3856  3853 1
 7465  3857  3853 1
 7466  3858  3854 1
 7467  3859  3855 1
 7468  3860  3855 1
 7469  3861  3855 1
 7470  3865  3862 1
 7471  3866  3862 1
 7472  3867  3863 1
 7473  3868  3864 1
 7474  3869  3864 1
 7475  3870  3864 1
 7476  3874  3871 1
 7477  3875  3871 1
 7478  3876  3872 1
 7479  3877  3873 1
 7480  3878  3873 1
 7481  3879  3873 1
 7482  3883  3880 1
 7483  3884  3880 1
 7484  3885  3881 1
 7485  3886  3882 1
 7486  3887  3882 1
 7487  3888  3882 1
 7488  3892  3889 1
 7489  3893  3889 1
 7490  3894  3890 1
 7491  3895  3891 1
 7492  3896  3891 1
 7493  3897  3891 1
 7494  3901  3898 1
 7495  3902  3898 1
 7496  3903  3899 1
 7497  3904  3900 1
 7498  3905  3900 1
 7499  3906  3900 1
 7500  3910  3907 1
 7501  3911  3907 1
 7502  3912  3908 1
 7503  3913  3909 1
 7504  3914  3909 1
 7505  3915  3909 1
 7506  3919  3916 1
 7507  3920  3916 1
 7508  3921  3917 1
 7509  3922  3918 1
 7510  3923  3918 1
 7511  3924  3918 1
 7512  3928  3925 1
 7513  3929  3925 1
 7514  3930  3926 1
 7515  3931  3927 1
 7516  3932  3927 1
 7517  3933  3927 1
 7518  3937  3934 1
 7519  3938  3934 1
 7520  3939  3935 1
 7521  3940  3936 1
 7522  3941  3936 1
 7523  3942  3936 1
 7524  3946  3943 1
 7525  3947  3943 1
 7526  3948  3944 1
 7527  3949  3945 1
 7528  3950  3945 1
 7529  3951  3945 1
 7530  3955  3952 1
 7531  3956  3952 1
 7532  3957  3953 1
 7533  3958  3954 1
 7534  3959  3954 1
 7535  3960  3954 1
 7536  3964  3961 1
 7537  3965  3961 1
 7538  3966  3962 1
 7539  3967  3963 1
 7540  3968  3963 1
 7541  3969  3963 1
 7542  3973  3970 1
 7543  3974  3970 1
 7544  3975  3971 1
 7545  3976  3972 1
 7546  3977  3972 1
 7547  3978  3972 1
 7548  3982  3979 1
 7549  3983  3979 1
 7550  3984  3980 1
 7551  3985  3981 1
 7552  3986  3981 1
 7553  3987  3981 1
 7554  3991  3988 1
 7555  3992  3988 1
 7556  3993  3989 1
 7557  3994  3990 1
 7558  3995  3990 1
 7559  3996  3990 1
 7560  4000  3997 1
 7561  4001  3997 1
 7562  4002  3998 1
 7563  4003  3999 1
 7564  4004  3999 1
 7565  4005  3999 1
 7566  4009  4006 1
 7567  4010  4006 1
 7568  4011  4007 1
 7569  4012  4008 1
 7570  4013  4008 1
 7571  4014  4008 1
 7572  4018  4015 1
 7573  4019  4015 1
 7574  4020  4016 1
 7575  4021  4017 1
 7576  4022  4017 1
 7577  4023  4017 1
 7578  4027  4024 1
 7579  4028  4024 1
 7580  4029  4025 1
 7581  4030  4026 1
 7582  4031  4026 1
 7583  4032  4026 1
 7584  4036  4033 1
 7585  4037  4033 1
 7586  4038  4034 1
 7587  4039  4035 1
 7588  4040  4035 1
 7589  4041  4035 1
 7590  4045  4042 1
 7591  4046  4042 1
 7592  4047  4043 1
 7593  4048  4044 1
 7594  4049  4044 1
 7595  4050  4044 1
 7596  4054  4051 1
 7597  4055  4051 1
 7598  4056  4052 1
 7599  4057  4053 1
 7600  4058  4053 1
 7601  4059  4053 1
 7602  4063  4060 1
 7603  4064  4060 1
 7604  4065  4061 1
 7605  4066  4062 1
 7606  4067  4062 1
 7607  4068  4062 1
 7608  4072  4069 1
 7609  4073  4069 1
 7610  4074  4070 1
 7611  4075  4071 1
 7612  4076  4071 1
 7613  4077  4071 1
 7614  4081  4078 1
 7615  4082  4078 1
 7616  4083  4079 1
 7617  4084  4080 1
 7618  4085  4080 1
 7619  4086  4080 1
 7620  4090  4087 1
 7621  4091  4087 1
 7622  4092  4088 1
 7623  4093  4089 1
 7624  4094  4089 1
 7625  4095  4089 1
 7626  4099  4096 1
 7627  4100  4096 1
 7628  4101  4097 1
 7629  4102  4098 1
 7630  4103  4098 1
 7631  4104  4098 1
 7632  4108  4105 1
 7633  4109  4105 1
 7634  4110  4106 1
 7635  4111  4107 1
 7636  4112  4107 1
 7637  4113  4107 1
 7638  4117  4114 1
 7639  4118  4114 1
 7640  4119  4115 1
 7641  4120  4116 1
 7642  4121  4116 1
 7643  4122  4116 1
 7644  4126  4123 1
 7645  4127  4123 1
 7646  4128  4124 1
 7647  4129  4125 1
 7648  4130  4125 1
 7649  4131  4125 1
 7650  4135  4132 1
 7651  4136  4132 1
 7652  4137  4133 1
 7653  4138  4134 1
 7654  4139  4134 1
 7655  4140  4134 1
 7656  4144  4141 1
 7657  4145  4141 1
 7658  4146  4142 1
 7659  4147  4143 1
 7660  4148  4143 1
 7661  4149  4143 1
 7662  4153  4150 1
 7663  4154  4150 1
 7664  4155  4151 1
 7665  4156  4152 1
 7666  4157  4152 1
 7667  4158  4152 1
 7668  4162  4159 1
 7669  4163  4159 1
 7670  4164  4160 1
 7671  4165  4161 1
 7672  4166  4161 1
 7673  4167  4161 1
 7674  4171  4168 1
 7675  4172  4168 1
 7676  4173  4169 1
 7677  4174  4170 1
 7678  4175  4170 1
 7679  4176  4170 1
 7680  4180  4177 1
 7681  4181  4177 1
 7682  4182  4178 1
 7683  4183  4179 1
 7684  4184  4179 1
 7685  4185  4179 1
 7686  4189  4186 1
 7687  4190  4186 1
 7688  4191  4187 1
 7689  4192  4188 1
 7690  4193  4188 1
 7691  4194  4188 1
 7692  4198  4195 1
 7693  4199  4195 1
 7694  4200  4196 1
 7695  4201  4197 1
 7696  4202  4197 1
 7697  4203  4197 1
 7698  4207  4204 1
 7699  4208  4204 1
 7700  4209  4205 1
 7701  4210  4206 1
 7702  4211  4206 1
 7703  4212  4206 1
 7704  4216  4213 1
 7705  4217  4213 1
 7706  4218  4214 1
 7707  4219  4215 1
 7708  4220  4215 1
 7709  4221  4215 1
 7710  4225  4222 1
 7711  4226  4222 1
 7712  4227  4223 1
 7713  4228  4224 1
 7714  4229  4224 1
 7715  4230  4224 1
 7716  4234  4231 1
 7717  4235  4231 1
 7718  4236  4232 1
 7719  4237  4233 1
 7720  4238  4233 1
 7721  4239  4233 1
 7722  4243  4240 1
 7723  4244  4240 1
 7724  4245  4241 1
 7725  4246  4242 1
 7726  4247  4242 1
 7727  4248  4242 1
 7728  4252  4249 1
 7729  4253  4249 1
 7730  4254  4250 1
 7731  4255  4251 1
 7732  4256  4251 1
 7733  4257  4251 1
 7734  4261  4258 1
 7735  4262  4258 1
 7736  4263  4259 1
 7737  4264  4260 1
 7738  4265  4260 1
 7739  4266  4260 1
 7740  4270  4267 1
 7741  4271  4267 1
 7742  4272  4268 1
 7743  4273  4269 1
 7744  4274  4269 1
 7745  4275  4269 1
 7746  4279  4276 1
 7747  4280  4276 1
 7748  4281  4277 1
 7749  4282  4278 1
 7750  4283  4278 1
 7751  4284  4278 1
 7752  4288  4285 1
 7753  4289  4285 1
 7754  4290  4286 1
 7755  4291  4287 1
 7756  4292  4287 1
 7757  4293  4287 1
 7758  4297  4294 1
 7759  4298  4294 1
 7760  4299  4295 1
 7761  4300  4296 1
 7762  4301  4296 1
 7763  4302  4296 1
 7764  4306  4303 1
 7765  4307  4303 1
 7766  4308  4304 1
 7767  4309  4305 1
 7768  4310  4305 1
 7769  4311  4305 1
 7770  4315  4312 1
 7771  4316  4312 1
 7772  4317  4313 1
 7773  4318  4314 1
 7774  4319  4314 1
 7775  4320  4314 1
 7776  4324  4321 1
 7777  4325  4321 1
 7778  4326  4322 1
 7779  4327  4323 1
 7780  4328  4323 1
 7781  4329  4323 1
 7782  4333  4330 1
 7783  4334  4330 1
 7784  4335  4331 1
 7785  4336  4332 1
 7786  4337  4332 1
 7787  4338  4332 1
 7788  4342  4339 1
 7789  4343  4339 1
 7790  4344  4340 1
 7791  4345  4341 1
 7792  4346  4341 1
 7793  4347  4341 1
 7794  4351  4348 1
 7795  4352  4348 1
 7796  4353  4349 1
 7797  4354  4350 1
 7798  4355  4350 1
 7799  4356  4350 1
 7800  4360  4357 1
 7801  4361  4357 1
 7802  4362  4358 1
 7803  4363  4359 1
 7804  4364  4359 1
 7805  4365  4359 1
 7806  4369  4366 1
 7807  4370  4366 1
 7808  4371  4367 1
 7809  4372  4368 1
 7810  4373  4368 1
 7811  4374  4368 1
 7812  4378  4375 1
 7813  4379  4375 1
 7814  4380  4376 1
 7815  4381  4377 1
 7816  4382  4377 1
 7817  4383  4377 1
 7818  4387  4384 1
 7819  4388  4384 1
 7820  4389  4385 1
 7821  4390  4386 1
 7822  4391  4386 1
 7823  4392  4386 1
 7824  4396  4393 1
 7825  4397  4393 1
 7826  4398  4394 1
 7827  4399  4395 1
 7828  4400  4395 1
 7829  4401  4395 1
 7830  4405  4402 1
 7831  4406  4402 1
 7832  4407  4403 1
 7833  4408  4404 1
 7834  4409  4404 1
 7835  4410  4404 1
 7836  4414  4411 1
 7837  4415  4411 1
 7838  4416  4412 1
 7839  4417  4413 1
 7840  4418  4413 1
 7841  4419  4413 1
 7842  4423  4420 1
 7843  4424  4420 1
 7844  4425  4421 1
 7845  4426  4422 1
 7846  4427  4422 1
 7847  4428  4422 1
 7848  4432  4429 1
 7849  4433  4429 1
 7850  4434  4430 1
 7851  4435  4431 1
 7852  4436  4431 1
 7853  4437  4431 1
 7854  4441  4438 1
 7855  4442  4438 1
 7856  4443  4439 1
 7857  4444  4440 1
 7858  4445  4440 1
 7859  4446  4440 1
 7860  4450  4447 1
 7861  4451  4447 1
 7862  4452  4448 1
 7863  4453  4449 1
 7864  4454  4449 1
 7865  4455  4449 1
 7866  4459  4456 1
 7867  4460  4456 1
 7868  4461  4457 1
 7869  4462  4458 1
 7870  4463  4458 1
 7871  4464  4458 1
 7872  4468  4465 1
 7873  4469  4465 1
 7874  4470  4466 1
 7875  4471  4467 1
 7876  4472  4467 1
 7877  4473  4467 1
 7878  4477  4474 1
 7879  4478  4474 1
 7880  4479  4475 1
 7881  4480  4476 1
 7882  4481  4476 1
 7883  4482  4476 1
 7884  4486  4483 1
 7885  4487  4483 1
 7886  4488  4484 1
 7887  4489  4485 1
 7888  4490  4485 1
 7889  4491  4485 1
 7890  4495  4492 1
 7891  4496  4492 1
 7892  4497  4493 1
 7893  4498  4494 1
 7894  4499  4494 1
 7895  4500  4494 1
 7896  4504  4501 1
 7897  4505  4501 1
 7898  4506  4502 1
 7899  4507  4503 1
 7900  4508  4503 1
 7901  4509  4503 1
 7902  4513  4510 1
 7903  4514  4510 1
 7904  4515  4511 1
 7905  4516  4512 1
 7906  4517  4512 1
 7907  4518  4512 1
 7908  4522  4519 1
 7909  4523  4519 1
 7910  4524  4520 1
 7911  4525  4521 1
 7912  4526  4521 1
 7913  4527  4521 1
 7914  4531  4528 1
 7915  4532  4528 1
 7916  4533  4529 1
 7917  4534  4530 1
 7918  4535  4530 1
 7919  4536  4530 1
 7920  4540  4537 1
 7921  4541  4537 1
 7922  4542  4538 1
 7923  4543  4539 1
 7924  4544  4539 1
 7925  4545  4539 1
 7926  4549  4546 1
 7927  4550  4546 1
 7928  4551  4547 1
 7929  4552  4548 1
 7930  4553  4548 1
 7931  4554  4548 1
 7932  4558  4555 1
 7933  4559  4555 1
 7934  4560  4556 1
 7935  4561  4557 1
 7936  4562  4557 1
 7937  4563  4557 1
 7938  4567  4564 1
 7939  4568  4564 1
 7940  4569  4565 1
 7941  4570  4566 1
 7942  4571  4566 1
 7943  4572  4566 1
 7944  4576  4573 1
 7945  4577  4573 1
 7946  4578  4574 1
 7947  4579  4575 1
 7948  4580  4575 1
 7949  4581  4575 1
 7950  4585  4582 1
 7951  4586  4582 1
 7952  4587  4583 1
 7953  4588  4584 1
 7954  4589  4584 1
 7955  4590  4584 1
 7956  4594  4591 1
 7957  4595  4591 1
 7958  4596  4592 1
 7959  4597  4593 1
 7960  4598  4593 1
 7961  4599  4593 1
 7962  4603  4600 1
 7963  4604  4600 1
 7964  4605  4601 1
 7965  4606  4602 1
 7966  4607  4602 1
 7967  4608  4602 1
 7968  4612  4609 1
 7969  4613  4609 1
 7970  4614  4610 1
 7971  4615  4611 1
 7972  4616  4611 1
 7973  4617  4611 1
 7974  4621  4618 1
 7975  4622  4618 1
 7976  4623  4619 1
 7977  4624  4620 1
 7978  4625  4620 1
 7979  4626  4620 1
 7980  4630  4627 1
 7981  4631  4627 1
 7982  4632  4628 1
 7983  4633  4629 1
 7984  4634  4629 1
 7985  4635  4629 1
 7986  4639  4636 1
 7987  4640  4636 1
 7988  4641  4637 1
 7989  4642  4638 1
 7990  4643  4638 1
 7991  4644  4638 1
 7992  4648  4645 1
 7993  4649  4645 1
 7994  4650  4646 1
 7995  4651  4647 1
 7996  4652  4647 1
 7997  4653  4647 1
 7998  4657  4654 1
 7999  4658  4654 1
 8000  4659  4655 1
 8001  4660  4656 1
 8002  4661  4656 1
 8003  4662  4656 1
 8004  4666  4663 1
 8005  4667  4663 1
 8006  4668  4664 1
 8007  4669  4665 1
 8008  4670  4665 1
 8009  4671  4665 1
 8010  4675  4672 1
 8011  4676  4672 1
 8012  4677  4673 1
 8013  4678  4674 1
 8014  4679  4674 1
 8015  4680  4674 1
 8016  4684  4681 1
 8017  4685  4681 1
 8018  4686  4682 1
 8019  4687  4683 1
 8020  4688  4683 1
 8021  4689  4683 1
 8022  4693  4690 1
 8023  4694  4690 1
 8024  4695  4691 1
 8025  4696  4692 1
 8026  4697  4692 1
 8027  4698  4692 1
 8028  4702  4699 1
 8029  4703  4699 1
 8030  4704  4700 1
 8031  4705  4701 1
 8032  4706  4701 1
 8033  4707  4701 1
 8034  4711  4708 1
 8035  4712  4708 1
 8036  4713  4709 1
 8037  4714  4710 1
 8038  4715  4710 1
 8039  4716  4710 1
 8040  4720  4717 1
 8041  4721  4717 1
 8042  4722  4718 1
 8043  4723  4719 1
 8044  4724  4719 1
 8045  4725  4719 1
 8046  4729  4726 1
 8047  4730  4726 1
 8048  4731  4727 1
 8049  4732  4728 1
 8050  4733  4728 1
 8051  4734  4728 1
 8052  4738  4735 1
 8053  4739  4735 1
 8054  4740  4736 1
 8055  4741  4737 1
 8056  4742  4737 1
 8057  4743  4737 1
 8058  4747  4744 1
 8059  4748  4744 1
 8060  4749  4745 1
 8061  4750  4746 1
 8062  4751  4746 1
 8063  4752  4746 1
 8064  4756  4753 1
 8065  4757  4753 1
 8066  4758  4754 1
 8067  4759  4755 1
 8068  4760  4755 1
 8069  4761  4755 1
 8070  4765  4762 1
 8071  4766  4762 1
 8072  4767  4763 1
 8073  4768  4764 1
 8074  4769  4764 1
 8075  4770  4764 1
 8076  4774  4771 1
 8077  4775  4771 1
 8078  4776  4772 1
 8079  4777  4773 1
 8080  4778  4773 1
 8081  4779  4773 1
 8082  4783  4780 1
 8083  4784  4780 1
 8084  4785  4781 1
 8085  4786  4782 1
 8086  4787  4782 1
 8087  4788  4782 1
 8088  4792  4789 1
 8089  4793  4789 1
 8090  4794  4790 1
 8091  4795  4791 1
 8092  4796  4791 1
 8093  4797  4791 1
 8094  4801  4798 1
 8095  4802  4798 1
 8096  4803  4799 1
 8097  4804  4800 1
 8098  4805  4800 1
 8099  4806  4800 1
 8100  4810  4807 1
 8101  4811  4807 1
 8102  4812  4808 1
 8103  4813  4809 1
 8104  4814  4809 1
 8105  4815  4809 1
 8106  4819  4816 1
 8107  4820  4816 1
 8108  4821  4817 1
 8109  4822  4818 1
 8110  4823  4818 1
 8111  4824  4818 1
 8112  4828  4825 1
 8113  4829  4825 1
 8114  4830  4826 1
 8115  4831  4827 1
 8116  4832  4827 1
 8117  4833  4827 1
 8118  4837  4834 1
 8119  4838  4834 1
 8120  4839  4835 1
 8121  4840  4836 1
 8122  4841  4836 1
 8123  4842  4836 1
 8124  4846  4843 1
 8125  4847  4843 1
 8126  4848  4844 1
 8127  4849  4845 1
 8128  4850  4845 1
 8129  4851  4845 1
 8130  4855  4852 1
 8131  4856  4852 1
 8132  4857  4853 1
 8133  4858  4854 1
 8134  4859  4854 1
 8135  4860  4854 1
 8136  4864  4861 1
 8137  4865  4861 1
 8138  4866  4862 1
 8139  4867  4863 1
 8140  4868  4863 1
 8141  4869  4863 1
 8142  4873  4870 1
 8143  4874  4870 1
 8144  4875  4871 1
 8145  4876  4872 1
 8146  4877  4872 1
 8147  4878  4872 1
 8148  4882  4879 1
 8149  4883  4879 1
 8150  4884  4880 1
 8151  4885  4881 1
 8152  4886  4881 1
 8153  4887  4881 1
 8154  4891  4888 1
 8155  4892  4888 1
 8156  4893  4889 1
 8157  4894  4890 1
 8158  4895  4890 1
 8159  4896  4890 1
 8160  4900  4897 1
 8161  4901  4897 1
 8162  4902  4898 1
 8163  4903  4899 1
 8164  4904  4899 1
 8165  4905  4899 1
 8166  4909  4906 1
 8167  4910  4906 1
 8168  4911  4907 1
 8169  4912  4908 1
 8170  4913  4908 1
 8171  4914  4908 1
 8172  4918  4915 1
 8173  4919  4915 1
 8174  4920  4916 1
 8175  4921  4917 1
 8176  4922  4917 1
 8177  4923  4917 1
 8178  4927  4924 1
 8179  4928  4924 1
 8180  4929  4925 1
 8181  4930  4926 1
 8182  4931  4926 1
 8183  4932  4926 1
 8184  4936  4933 1
 8185  4937  4933 1
 8186  4938  4934 1
 8187  4939  4935 1
 8188  4940  4935 1
 8189  4941  4935 1
 8190  4945  4942 1
 8191  4946  4942 1
 8192  4947  4943 1
 8193  4948  4944 1
 8194  4949  4944 1
 8195  4950  4944 1
 8196  4954  4951 1
 8197  4955  4951 1
 8198  4956  4952 1
 8199  4957  4953 1
 8200  4958  4953 1
 8201  4959  4953 1
 8202  4963  4960 1
 8203  4964  4960 1
 8204  4965  4961 1
 8205  4966  4962 1
 8206  4967  4962 1
 8207  4968  4962 1
 8208  4972  4969 1
 8209  4973  4969 1
 8210  4974  4970 1
 8211  4975  4971 1
 8212  4976  4971 1
 8213  4977  4971 1
 8214  4981  4978 1
 8215  4982  4978 1
 8216  4983  4979 1
 8217  4984  4980 1
 8218  4985  4980 1
 8219  4986  4980 1
 8220  4990  4987 1
 8221  4991  4987 1
 8222  4992  4988 1
 8223  4993  4989 1
 8224  4994  4989 1
 8225  4995  4989 1
 8226  4999  4996 1
 8227  5000  4996 1
 8228  5001  4997 1
 8229  5002  4998 1
 8230  5003  4998 1
 8231  5004  4998 1
 8232  5008  5005 1
 8233  5009  5005 1
 8234  5010  5006 1
 8235  5011  5007 1
 8236  5012  5007 1
 8237  5013  5007 1
 8238  5017  5014 1
 8239  5018  5014 1
 8240  5019  5015 1
 8241  5020  5016 1
 8242  5021  5016 1
 8243  5022  5016 1
 8244  5026  5023 1
 8245  5027  5023 1
 8246  5028  5024 1
 8247  5029  5025 1
 8248  5030  5025 1
 8249  5031  5025 1
 8250  5035  5032 1
 8251  5036  5032 1
 8252  5037  5033 1
 8253  5038  5034 1
 8254  5039  5034 1
 8255  5040  5034 1
 8256  5044  5041 1
 8257  5045  5041 1
 8258  5046  5042 1
 8259  5047  5043 1
 8260  5048  5043 1
 8261  5049  5043 1
 8262  5053  5050 1
 8263  5054  5050 1
 8264  5055  5051 1
 8265  5056  5052 1
 8266  5057  5052 1
 8267  5058  5052 1
 8268  5062  5059 1
 8269  5063  5059 1
 8270  5064  5060 1
 8271  5065  5061 1
 8272  5066  5061 1
 8273  5067  5061 1
 8274  5071  5068 1
 8275  5072  5068 1
 8276  5073  5069 1
 8277  5074  5070 1
 8278  5075  5070 1
 8279  5076  5070 1
 8280  5080  5077 1
 8281  5081  5077 1
 8282  5082  5078 1
 8283  5083  5079 1
 8284  5084  5079 1
 8285  5085  5079 1
 8286  5089  5086 1
 8287  5090  5086 1
 8288  5091  5087 1
 8289  5092  5088 1
 8290  5093  5088 1
 8291  5094  5088 1
 8292  5098  5095 1
 8293  5099  5095 1
 8294  5100  5096 1
 8295  5101  5097 1
 8296  5102  5097 1
 8297  5103  5097 1
 8298  5107  5104 1
 8299  5108  5104 1
 8300  5109  5105 1
 8301  5110  5106 1
 8302  5111  5106 1
 8303  5112  5106 1
 8304  5116  5113 1
 8305  5117  5113 1
 8306  5118  5114 1
 8307  5119  5115 1
 8308  5120  5115 1
 8309  5121  5115 1
 8310  5125  5122 1
 8311  5126  5122 1
 8312  5127  5123 1
 8313  5128  5124 1
 8314  5129  5124 1
 8315  5130  5124 1
 8316  5134  5131 1
 8317  5135  5131 1
 8318  5136  5132 1
 8319  5137  5133 1
 8320  5138  5133 1
 8321  5139  5133 1
 8322  5143  5140 1
 8323  5144  5140 1
 8324  5145  5141 1
 8325  5146  5142 1
 8326  5147  5142 1
 8327  5148  5142 1
 8328  5152  5149 1
 8329  5153  5149 1
 8330  5154  5150 1
 8331  5155  5151 1
 8332  5156  5151 1
 8333  5157  5151 1
 8334  5161  5158 1
 8335  5162  5158 1
 8336  5163  5159 1
 8337  5164  5160 1
 8338  5165  5160 1
 8339  5166  5160 1
 8340  5170  5167 1
 8341  5171  5167 1
 8342  5172  5168 1
 8343  5173  5169 1
 8344  5174  5169 1
 8345  5175  5169 1
 8346  5179  5176 1
 8347  5180  5176 1
 8348  5181  5177 1
 8349  5182  5178 1
 8350  5183  5178 1
 8351  5184  5178 1
 8352  5188  5185 1
 8353  5189  5185 1
 8354  5190  5186 1
 8355  5191  5187 1
 8356  5192  5187 1
 8357  5193  5187 1
 8358  5197  5194 1
 8359  5198  5194 1
 8360  5199  5195 1
 8361  5200  5196 1
 8362  5201  5196 1
 8363  5202  5196 1
 8364  5206  5203 1
 8365  5207  5203 1
 8366  5208  5204 1
 8367  5209  5205 1
 8368  5210  5205 1
 8369  5211  5205 1
 8370  5215  5212 1
 8371  5216  5212 1
 8372  5217  5213 1
 8373  5218  5214 1
 8374  5219  5214 1
 8375  5220  5214 1
 8376  5224  5221 1
 8377  5225  5221 1
 8378  5226  5222 1
 8379  5227  5223 1
 8380  5228  5223 1
 8381  5229  5223 1
 8382  5233  5230 1
 8383  5234  5230 1
 8384  5235  5231 1
 8385  5236  5232 1
 8386  5237  5232 1
 8387  5238  5232 1
 8388  5242  5239 1
 8389  5243  5239 1
 8390  5244  5240 1
 8391  5245  5241 1
 8392  5246  5241 1
 8393  5247  5241 1
 8394  5251  5248 1
 8395  5252  5248 1
 8396  5253  5249 1
 8397  5254  5250 1
 8398  5255  5250 1
 8399  5256  5250 1
 8400  5260  5257 1
 8401  5261  5257 1
 8402  5262  5258 1
 8403  5263  5259 1
 8404  5264  5259 1
 8405  5265  5259 1
 8406  5269  5266 1
 8407  5270  5266 1
 8408  5271  5267 1
 8409  5272  5268 1
 8410  5273  5268 1
 8411  5274  5268 1
 8412  5278  5275 1
 8413  5279  5275 1
 8414  5280  5276 1
 8415  5281  5277 1
 8416  5282  5277 1
 8417  5283  5277 1
 8418  5287  5284 1
 8419  5288  5284 1
 8420  5289  5285 1
 8421  5290  5286 1
 8422  5291  5286 1
 8423  5292  5286 1
 8424  5296  5293 1
 8425  5297  5293 1
 8426  5298  5294 1
 8427  5299  5295 1
 8428  5300  5295 1
 8429  5301  5295 1
 8430  5305  5302 1
 8431  5306  5302 1
 8432  5307  5303 1
 8433  5308  5304 1
 8434  5309  5304 1
 8435  5310  5304 1
 8436  5314  5311 1
 8437  5315  5311 1
 8438  5316  5312 1
 8439  5317  5313 1
 8440  5318  5313 1
 8441  5319  5313 1
 8442  5323  5320 1
 8443  5324  5320 1
 8444  5325  5321 1
 8445  5326  5322 1
 8446  5327  5322 1
 8447  5328  5322 1
 8448  5332  5329 1
 8449  5333  5329 1
 8450  5334  5330 1
 8451  5335  5331 1
 8452  5336  5331 1
 8453  5337  5331 1
 8454  5341  5338 1
 8455  5342  5338 1
 8456  5343  5339 1
 8457  5344  5340 1
 8458  5345  5340 1
 8459  5346  5340 1
 8460  5350  5347 1
 8461  5351  5347 1
 8462  5352  5348 1
 8463  5353  5349 1
 8464  5354  5349 1
 8465  5355  5349 1
 8466  5359  5356 1
 8467  5360  5356 1
 8468  5361  5357 1
 8469  5362  5358 1
 8470  5363  5358 1
 8471  5364  5358 1
 8472  5368  5365 1
 8473  5369  5365 1
 8474  5370  5366 1
 8475  5371  5367 1
 8476  5372  5367 1
 8477  5373  5367 1
 8478  5377  5374 1
 8479  5378  5374 1
 8480  5379  5375 1
 8481  5380  5376 1
 8482  5381  5376 1
 8483  5382  5376 1
 8484  5386  5383 1
 8485  5387  5383 1
 8486  5388  5384 1
 8487  5389  5385 1
 8488  5390  5385 1
 8489  5391  5385 1
 8490  5395  5392 1
 8491  5396  5392 1
 8492  5397  5393 1
 8493  5398  5394 1
 8494  5399  5394 1
 8495  5400  5394 1
 8496  5404  5401 1
 8497  5405  5401 1
 8498  5406  5402 1
 8499  5407  5403 1
 8500  5408  5403 1
 8501  5409  5403 1
 8502  5413  5410 1
 8503  5414  5410 1
 8504  5415  5411 1
 8505  5416  5412 1
 8506  5417  5412 1
 8507  5418  5412 1
 8508  5422  5419 1
 8509  5423  5419 1
 8510  5424  5420 1
 8511  5425  5421 1
 8512  5426  5421 1
 8513  5427  5421 1
 8514  5431  5428 1
 8515  5432  5428 1
 8516  5433  5429 1
 8517  5434  5430 1
 8518  5435  5430 1
 8519  5436  5430 1
 8520  5440  5437 1
 8521  5441  5437 1
 8522  5442  5438 1
 8523  5443  5439 1
 8524  5444  5439 1
 8525  5445  5439 1
 8526  5449  5446 1
 8527  5450  5446 1
 8528  5451  5447 1
 8529  5452  5448 1
 8530  5453  5448 1
 8531  5454  5448 1
 8532  5458  5455 1
 8533  5459  5455 1
 8534  5460  5456 1
 8535  5461  5457 1
 8536  5462  5457 1
 8537  5463  5457 1
 8538  5467  5464 1
 8539  5468  5464 1
 8540  5469  5465 1
 8541  5470  5466 1
 8542  5471  5466 1
 8543  5472  5466 1
 8544  5476  5473 1
 8545  5477  5473 1
 8546  5478  5474 1
 8547  5479  5475 1
 8548  5480  5475 1
 8549  5481  5475 1
 8550  5485  5482 1
 8551  5486  5482 1
 8552  5487  5483 1
 8553  5488  5484 1
 8554  5489  5484 1
 8555  5490  5484 1
 8556  5494  5491 1
 8557  5495  5491 1
 8558  5496  5492 1
 8559  5497  5493 1
 8560  5498  5493 1
 8561  5499  5493 1
 8562  5503  5500 1
 8563  5504  5500 1
 8564  5505  5501 1
 8565  5506  5502 1
 8566  5507  5502 1
 8567  5508  5502 1
 8568  5512  5509 1
 8569  5513  5509 1
 8570  5514  5510 1
 8571  5515  5511 1
 8572  5516  5511 1
 8573  5517  5511 1
 8574  5521  5518 1
 8575  5522  5518 1
 8576  5523  5519 1
 8577  5524  5520 1
 8578  5525  5520 1
 8579  5526  5520 1
 8580  5530  5527 1
 8581  5531  5527 1
 8582  5532  5528 1
 8583  5533  5529 1
 8584  5534  5529 1
 8585  5535  5529 1
 8586  5539  5536 1
 8587  5540  5536 1
 8588  5541  5537 1
 8589  5542  5538 1
 8590  5543  5538 1
 8591  5544  5538 1
 8592  5548  5545 1
 8593  5549  5545 1
 8594  5550  5546 1
 8595  5551  5547 1
 8596  5552  5547 1
 8597  5553  5547 1
 8598  5557  5554 1
 8599  5558  5554 1
 8600  5559  5555 1
 8601  5560  5556 1
 8602  5561  5556 1
 8603  5562  5556 1
 8604  5566  5563 1
 8605  5567  5563 1
 8606  5568  5564 1
 8607  5569  5565 1
 8608  5570  5565 1
 8609  5571  5565 1
 8610  5575  5572 1
 8611  5576  5572 1
 8612  5577  5573 1
 8613  5578  5574 1
 8614  5579  5574 1
 8615  5580  5574 1
 8616  5584  5581 1
 8617  5585  5581 1
 8618  5586  5582 1
 8619  5587  5583 1
 8620  5588  5583 1
 8621  5589  5583 1
 8622  5593  5590 1
 8623  5594  5590 1
 8624  5595  5591 1
 8625  5596  5592 1
 8626  5597  5592 1
 8627  5598  5592 1
 8628  5602  5599 1
 8629  5603  5599 1
 8630  5604  5600 1
 8631  5605  5601 1
 8632  5606  5601 1
 8633  5607  5601 1
 8634  5611  5608 1
 8635  5612  5608 1
 8636  5613  5609 1
 8637  5614  5610 1
 8638  5615  5610 1
 8639  5616  5610 1
 8640  5620  5617 1
 8641  5621  5617 1
 8642  5622  5618 1
 8643  5623  5619 1
 8644  5624  5619 1
 8645  5625  5619 1
 8646  5629  5626 1
 8647  5630  5626 1
 8648  5631  5627 1
 8649  5632  5628 1
 8650  5633  5628 1
 8651  5634  5628 1
 8652  5638  5635 1
 8653  5639  5635 1
 8654  5640  5636 1
 8655  5641  5637 1
 8656  5642  5637 1
 8657  5643  5637 1
 8658  5647  5644 1
 8659  5648  5644 1
 8660  5649  5645 1
 8661  5650  5646 1
 8662  5651  5646 1
 8663  5652  5646 1
 8664  5656  5653 1
 8665  5657  5653 1
 8666  5658  5654 1
 8667  5659  5655 1
 8668  5660  5655 1
 8669  5661  5655 1
 8670  5665  5662 1
 8671  5666  5662 1
 8672  5667  5663 1
 8673  5668  5664 1
 8674  5669  5664 1
 8675  5670  5664 1
 8676  5674  5671 1
 8677  5675  5671 1
 8678  5676  5672 1
 8679  5677  5673 1
 8680  5678  5673 1
 8681  5679  5673 1
 8682  5683  5680 1
 8683  5684  5680 1
 8684  5685  5681 1
 8685  5686  5682 1
 8686  5687  5682 1
 8687  5688  5682 1
 8688  5692  5689 1
 8689  5693  5689 1
 8690  5694  5690 1
 8691  5695  5691 1
 8692  5696  5691 1
 8693  5697  5691 1
 8694  5701  5698 1
 8695  5702  5698 1
 8696  5703  5699 1
 8697  5704  5700 1
 8698  5705  5700 1
 8699  5706  5700 1
 8700  5710  5707 1
 8701  5711  5707 1
 8702  5712  5708 1
 8703  5713  5709 1
 8704  5714  5709 1
 8705  5715  5709 1
 8706  5719  5716 1
 8707  5720  5716 1
 8708  5721  5717 1
 8709  5722  5718 1
 8710  5723  5718 1
 8711  5724  5718 1
 8712  5728  5725 1
 8713  5729  5725 1
 8714  5730  5726 1
 8715  5731  5727 1
 8716  5732  5727 1
 8717  5733  5727 1
 8718  5737  5734 1
 8719  5738  5734 1
 8720  5739  5735 1
 8721  5740  5736 1
 8722  5741  5736 1
 8723  5742  5736 1
 8724  5746  5743 1
 8725  5747  5743 1
 8726  5748  5744 1
 8727  5749  5745 1
 8728  5750  5745 1
 8729  5751  5745 1
 8730  5755  5752 1
 8731  5756  5752 1
 8732  5757  5753 1
 8733  5758  5754 1
 8734  5759  5754 1
 8735  5760  5754 1
 8736  5764  5761 1
 8737  5765  5761 1
 8738  5766  5762 1
 8739  5767  5763 1
 8740  5768  5763 1
 8741  5769  5763 1
 8742  5773  5770 1
 8743  5774  5770 1
 8744  5775  5771 1
 8745  5776  5772 1
 8746  5777  5772 1
 8747  5778  5772 1
 8748  5782  5779 1
 8749  5783  5779 1
 8750  5784  5780 1
 8751  5785  5781 1
 8752  5786  5781 1
 8753  5787  5781 1
 8754  5791  5788 1
 8755  5792  5788 1
 8756  5793  5789 1
 8757  5794  5790 1
 8758  5795  5790 1
 8759  5796  5790 1
 8760  5800  5797 1
 8761  5801  5797 1
 8762  5802  5798 1
 8763  5803  5799 1
 8764  5804  5799 1
 8765  5805  5799 1
 8766  5809  5806 1
 8767  5810  5806 1
 8768  5811  5807 1
 8769  5812  5808 1
 8770  5813  5808 1
 8771  5814  5808 1
 8772  5818  5815 1
 8773  5819  5815 1
 8774  5820  5816 1
 8775  5821  5817 1
 8776  5822  5817 1
 8777  5823  5817 1
 8778  5827  5824 1
 8779  5828  5824 1
 8780  5829  5825 1
 8781  5830  5826 1
 8782  5831  5826 1
 8783  5832  5826 1
 8784  5836  5833 1
 8785  5837  5833 1
 8786  5838  5834 1
 8787  5839  5835 1
 8788  5840  5835 1
 8789  5841  5835 1
 8790  5845  5842 1
 8791  5846  5842 1
 8792  5847  5843 1
 8793  5848  5844 1
 8794  5849  5844 1
 8795  5850  5844 1
 8796  5854  5851 1
 8797  5855  5851 1
 8798  5856  5852 1
 8799  5857  5853 1
 8800  5858  5853 1
 8801  5859  5853 1
 8802  5863  5860 1
 8803  5864  5860 1
 8804  5865  5861 1
 8805  5866  5862 1
 8806  5867  5862 1
 8807  5868  5862 1
 8808  5872  5869 1
 8809  5873  5869 1
 8810  5874  5870 1
 8811  5875  5871 1
 8812  5876  5871 1
 8813  5877  5871 1
 8814  5881  5878 1
 8815  5882  5878 1
 8816  5883  5879 1
 8817  5884  5880 1
 8818  5885  5880 1
 8819  5886  5880 1
 8820  5890  5887 1
 8821  5891  5887 1
 8822  5892  5888 1
 8823  5893  5889 1
 8824  5894  5889 1
 8825  5895  5889 1
 8826  5899  5896 1
 8827  5900  5896 1
 8828  5901  5897 1
 8829  5902  5898 1
 8830  5903  5898 1
 8831  5904  5898 1
 8832  5908  5905 1
 8833  5909  5905 1
 8834  5910  5906 1
 8835  5911  5907 1
 8836  5912  5907 1
 8837  5913  5907 1
 8838  5917  5914 1
 8839  5918  5914 1
 8840  5919  5915 1
 8841  5920  5916 1
 8842  5921  5916 1
 8843  5922  5916 1
 8844  5926  5923 1
 8845  5927  5923 1
 8846  5928  5924 1
 8847  5929  5925 1
 8848  5930  5925 1
 8849  5931  5925 1
 8850  5935  5932 1
 8851  5936  5932 1
 8852  5937  5933 1
 8853  5938  5934 1
 8854  5939  5934 1
 8855  5940  5934 1
 8856  5944  5941 1
 8857  5945  5941 1
 8858  5946  5942 1
 8859  5947  5943 1
 8860  5948  5943 1
 8861  5949  5943 1
 8862  5953  5950 1
 8863  5954  5950 1
 8864  5955  5951 1
 8865  5956  5952 1
 8866  5957  5952 1
 8867  5958  5952 1
 8868  5962  5959 1
 8869  5963  5959 1
 8870  5964  5960 1
 8871  5965  5961 1
 8872  5966  5961 1
 8873  5967  5961 1
 8874  5971  5968 1
 8875  5972  5968 1
 8876  5973  5969 1
 8877  5974  5970 1
 8878  5975  5970 1
 8879  5976  5970 1
 8880  5980  5977 1
 8881  5981  5977 1
 8882  5982  5978 1
 8883  5983  5979 1
 8884  5984  5979 1
 8885  5985  5979 1
 8886  5989  5986 1
 8887  5990  5986 1
 8888  5991  5987 1
 8889  5992  5988 1
 8890  5993  5988 1
 8891  5994  5988 1
 8892  5998  5995 1
 8893  5999  5995 1
 8894  6000  5996 1
 8895  6001  5997 1
 8896  6002  5997 1
 8897  6003  5997 1
 8898  6007  6004 1
 8899  6008  6004 1
 8900  6009  6005 1
 8901  6010  6006 1
 8902  6011  6006 1
 8903  6012  6006 1
 8904  6016  6013 1
 8905  6017  6013 1
 8906  6018  6014 1
 8907  6019  6015 1
 8908  6020  6015 1
 8909  6021  6015 1
 8910  6025  6022 1
 8911  6026  6022 1
 8912  6027  6023 1
 8913  6028  6024 1
 8914  6029  6024 1
 8915  6030  6024 1
 8916  6034  6031 1
 8917  6035  6031 1
 8918  6036  6032 1
 8919  6037  6033 1
 8920  6038  6033 1
 8921  6039  6033 1
 8922  6043  6040 1
 8923  6044  6040 1
 8924  6045  6041 1
 8925  6046  6042 1
 8926  6047  6042 1
 8927  6048  6042 1
 8928  6052  6049 1
 8929  6053  6049 1
 8930  6054  6050 1
 8931  6055  6051 1
 8932  6056  6051 1
 8933  6057  6051 1
 8934  6061  6058 1
 8935  6062  6058 1
 8936  6063  6059 1
 8937  6064  6060 1
 8938  6065  6060 1
 8939  6066  6060 1
 8940  6070  6067 1
 8941  6071  6067 1
 8942  6072  6068 1
 8943  6073  6069 1
 8944  6074  6069 1
 8945  6075  6069 1
 8946  6079  6076 1
 8947  6080  6076 1
 8948  6081  6077 1
 8949  6082  6078 1
 8950  6083  6078 1
 8951  6084  6078 1
 8952  6088  6085 1
 8953  6089  6085 1
 8954  6090  6086 1
 8955  6091  6087 1
 8956  6092  6087 1
 8957  6093  6087 1
 8958  6097  6094 1
 8959  6098  6094 1
 8960  6099  6095 1
 8961  6100  6096 1
 8962  6101  6096 1
 8963  6102  6096 1
 8964  6106  6103 1
 8965  6107  6103 1
 8966  6108  6104 1
 8967  6109  6105 1
 8968  6110  6105 1
 8969  6111  6105 1
 8970  6115  6112 1
 8971  6116  6112 1
 8972  6117  6113 1
 8973  6118  6114 1
 8974  6119  6114 1
 8975  6120  6114 1
 8976  6124  6121 1
 8977  6125  6121 1
 8978  6126  6122 1
 8979  6127  6123 1
 8980  6128  6123 1
 8981  6129  6123 1
 8982  6133  6130 1
 8983  6134  6130 1
 8984  6135  6131 1
 8985  6136  6132 1
 8986  6137  6132 1
 8987  6138  6132 1
 8988  6142  6139 1
 8989  6143  6139 1
 8990  6144  6140 1
 8991  6145  6141 1
 8992  6146  6141 1
 8993  6147  6141 1
 8994  6151  6148 1
 8995  6152  6148 1
 8996  6153  6149 1
 8997  6154  6150 1
 8998  6155  6150 1
 8999  6156  6150 1
 9000  6160  6157 1
 9001  6161  6157 1
 9002  6162  6158 1
 9003  6163  6159 1
 9004  6164  6159 1
 9005  6165  6159 1
 9006  6169  6166 1
 9007  6170  6166 1
 9008  6171  6167 1
 9009  6172  6168 1
 9010  6173  6168 1
 9011  6174  6168 1
 9012  6178  6175 1
 9013  6179  6175 1
 9014  6180  6176 1
 9015  6181  6177 1
 9016  6182  6177 1
 9017  6183  6177 1
 9018  6187  6184 1
 9019  6188  6184 1
 9020  6189  6185 1
 9021  6190  6186 1
 9022  6191  6186 1
 9023  6192  6186 1
 9024  6196  6193 1
 9025  6197  6193 1
 9026  6198  6194 1
 9027  6199  6195 1
 9028  6200  6195 1
 9029  6201  6195 1
 9030  6205  6202 1
 9031  6206  6202 1
 9032  6207  6203 1
 9033  6208  6204 1
 9034  6209  6204 1
 9035  6210  6204 1
 9036  6214  6211 1
 9037  6215  6211 1
 9038  6216  6212 1
 9039  6217  6213 1
 9040  6218  6213 1
 9041  6219  6213 1
 9042  6223  6220 1
 9043  6224  6220 1
 9044  6225  6221 1
 9045  6226  6222 1
 9046  6227  6222 1
 9047  6228  6222 1
 9048  6232  6229 1
 9049  6233  6229 1
 9050  6234  6230 1
 9051  6235  6231 1
 9052  6236  6231 1
 9053  6237  6231 1
 9054  6241  6238 1
 9055  6242  6238 1
 9056  6243  6239 1
 9057  6244  6240 1
 9058  6245  6240 1
 9059  6246  6240 1
 9060  6250  6247 1
 9061  6251  6247 1
 9062  6252  6248 1
 9063  6253  6249 1
 9064  6254  6249 1
 9065  6255  6249 1
 9066  6259  6256 1
 9067  6260  6256 1
 9068  6261  6257 1
 9069  6262  6258 1
 9070  6263  6258 1
 9071  6264  6258 1
 9072  6268  6265 1
 9073  6269  6265 1
 9074  6270  6266 1
 9075  6271  6267 1
 9076  6272  6267 1
 9077  6273  6267 1
 9078  6277  6274 1
 9079  6278  6274 1
 9080  6279  6275 1
 9081  6280  6276 1
 9082  6281  6276 1
 9083  6282  6276 1
 9084  6286  6283 1
 9085  6287  6283 1
 9086  6288  6284 1
 9087  6289  6285 1
 9088  6290  6285 1
 9089  6291  6285 1
 9090  6295  6292 1
 9091  6296  6292 1
 9092  6297  6293 1
 9093  6298  6294 1
 9094  6299  6294 1
 9095  6300  6294 1
 9096  6304  6301 1
 9097  6305  6301 1
 9098  6306  6302 1
 9099  6307  6303 1
 9100  6308  6303 1
 9101  6309  6303 1
 9102  6313  6310 1
 9103  6314  6310 1
 9104  6315  6311 1
 9105  6316  6312 1
 9106  6317  6312 1
 9107  6318  6312 1
 9108  6322  6319 1
 9109  6323  6319 1
 9110  6324  6320 1
 9111  6325  6321 1
 9112  6326  6321 1
 9113  6327  6321 1
 9114  6331  6328 1
 9115  6332  6328 1
 9116  6333  6329 1
 9117  6334  6330 1
 9118  6335  6330 1
 9119  6336  6330 1
 9120  6340  6337 1
 9121  6341  6337 1
 9122  6342  6338 1
 9123  6343  6339 1
 9124  6344  6339 1
 9125  6345  6339 1
 9126  6349  6346 1
 9127  6350  6346 1
 9128  6351  6347 1
 9129  6352  6348 1
 9130  6353  6348 1
 9131  6354  6348 1
 9132  6358  6355 1
 9133  6359  6355 1
 9134  6360  6356 1
 9135  6361  6357 1
 9136  6362  6357 1
 9137  6363  6357 1
 9138  6367  6364 1
 9139  6368  6364 1
 9140  6369  6365 1
 9141  6370  6366 1
 9142  6371  6366 1
 9143  6372  6366 1
 9144  6376  6373 1
 9145  6377  6373 1
 9146  6378  6374 1
 9147  6379  6375 1
 9148  6380  6375 1
 9149  6381  6375 1
 9150  6385  6382 1
 9151  6386  6382 1
 9152  6387  6383 1
 9153  6388  6384 1
 9154  6389  6384 1
 9155  6390  6384 1
 9156  6394  6391 1
 9157  6395  6391 1
 9158  6396  6392 1
 9159  6397  6393 1
 9160  6398  6393 1
 9161  6399  6393 1
 9162  6403  6400 1
 9163  6404  6400 1
 9164  6405  6401 1
 9165  6406  6402 1
 9166  6407  6402 1
 9167  6408  6402 1
 9168  6412  6409 1
 9169  6413  6409 1
 9170  6414  6410 1
 9171  6415  6411 1
 9172  6416  6411 1
 9173  6417  6411 1
 9174  6421  6418 1
 9175  6422  6418 1
 9176  6423  6419 1
 9177  6424  6420 1
 9178  6425  6420 1
 9179  6426  6420 1
 9180  6430  6427 1
 9181  6431  6427 1
 9182  6432  6428 1
 9183  6433  6429 1
 9184  6434  6429 1
 9185  6435  6429 1
 9186  6439  6436 1
 9187  6440  6436 1
 9188  6441  6437 1
 9189  6442  6438 1
 9190  6443  6438 1
 9191  6444  6438 1
 9192  6448  6445 1
 9193  6449  6445 1
 9194  6450  6446 1
 9195  6451  6447 1
 9196  6452  6447 1
 9197  6453  6447 1
 9198  6457  6454 1
 9199  6458  6454 1
 9200  6459  6455 1
 9201  6460  6456 1
 9202  6461  6456 1
 9203  6462  6456 1
 9204  6466  6463 1
 9205  6467  6463 1
 9206  6468  6464 1
 9207  6469  6465 1
 9208  6470  6465 1
 9209  6471  6465 1
 9210  6475  6472 1
 9211  6476  6472 1
 9212  6477  6473 1
 9213  6478  6474 1
 9214  6479  6474 1
 9215  6480  6474 1
 9216  6484  6481 1
 9217  6485  6481 1
 9218  6486  6482 1
 9219  6487  6483 1
 9220  6488  6483 1
 9221  6489  6483 1
 9222  6493  6490 1
 9223  6494  6490 1
 9224  6495  6491 1
 9225  6496  6492 1
 9226  6497  6492 1
 9227  6498  6492 1
 9228  6502  6499 1
 9229  6503  6499 1
 9230  6504  6500 1
 9231  6505  6501 1
 9232  6506  6501 1
 9233  6507  6501 1
 9234  6511  6508 1
 9235  6512  6508 1
 9236  6513  6509 1
 9237  6514  6510 1
 9238  6515  6510 1
 9239  6516  6510 1
 9240  6520  6517 1
 9241  6521  6517 1
 9242  6522  6518 1
 9243  6523  6519 1
 9244  6524  6519 1
 9245  6525  6519 1
 9246  6529  6526 1
 9247  6530  6526 1
 9248  6531  6527 1
 9249  6532  6528 1
 9250  6533  6528 1
 9251  6534  6528 1
 9252  6538  6535 1
 9253  6539  6535 1
 9254  6540  6536 1
 9255  6541  6537 1
 9256  6542  6537 1
 9257  6543  6537 1
 9258  6547  6544 1
 9259  6548  6544 1
 9260  6549  6545 1
 9261  6550  6546 1
 9262  6551  6546 1
 9263  6552  6546 1
 9264  6556  6553 1
 9265  6557  6553 1
 9266  6558  6554 1
 9267  6559  6555 1
 9268  6560  6555 1
 9269  6561  6555 1
 9270  6565  6562 1
 9271  6566  6562 1
 9272  6567  6563 1
 9273  6568  6564 1
 9274  6569  6564 1
 9275  6570  6564 1
 9276  6574  6571 1
 9277  6575  6571 1
 9278  6576  6572 1
 9279  6577  6573 1
 9280  6578  6573 1
 9281  6579  6573 1
 9282  6583  6580 1
 9283  6584  6580 1
 9284  6585  6581 1
 9285  6586  6582 1
 9286  6587  6582 1
 9287  6588  6582 1
 9288  6592  6589 1
 9289  6593  6589 1
 9290  6594  6590 1
 9291  6595  6591 1
 9292  6596  6591 1
 9293  6597  6591 1
 9294  6601  6598 1
 9295  6602  6598 1
 9296  6603  6599 1
 9297  6604  6600 1
 9298  6605  6600 1
 9299  6606  6600 1
 9300  6610  6607 1
 9301  6611  6607 1
 9302  6612  6608 1
 9303  6613  6609 1
 9304  6614  6609 1
 9305  6615  6609 1
 9306  6619  6616 1
 9307  6620  6616 1
 9308  6621  6617 1
 9309  6622  6618 1
 9310  6623  6618 1
 9311  6624  6618 1
 9312  6628  6625 1
 9313  6629  6625 1
 9314  6630  6626 1
 9315  6631  6627 1
 9316  6632  6627 1
 9317  6633  6627 1
 9318  6637  6634 1
 9319  6638  6634 1
 9320  6639  6635 1
 9321  6640  6636 1
 9322  6641  6636 1
 9323  6642  6636 1
 9324  6646  6643 1
 9325  6647  6643 1
 9326  6648  6644 1
 9327  6649  6645 1
 9328  6650  6645 1
 9329  6651  6645 1
 9330  6655  6652 1
 9331  6656  6652 1
 9332  6657  6653 1
 9333  6658  6654 1
 9334  6659  6654 1
 9335  6660  6654 1
 9336  6664  6661 1
 9337  6665  6661 1
 9338  6666  6662 1
 9339  6667  6663 1
 9340  6668  6663 1
 9341  6669  6663 1
 9342  6673  6670 1
 9343  6674  6670 1
 9344  6675  6671 1
 9345  6676  6672 1
 9346  6677  6672 1
 9347  6678  6672 1
 9348  6682  6679 1
 9349  6683  6679 1
 9350  6684  6680 1
 9351  6685  6681 1
 9352  6686  6681 1
 9353  6687  6681 1
 9354  6691  6688 1
 9355  6692  6688 1
 9356  6693  6689 1
 9357  6694  6690 1
 9358  6695  6690 1
 9359  6696  6690 1
 9360  6700  6697 1
 9361  6701  6697 1
 9362  6702  6698 1
 9363  6703  6699 1
 9364  6704  6699 1
 9365  6705  6699 1
 9366  6709  6706 1
 9367  6710  6706 1
 9368  6711  6707 1
 9369  6712  6708 1
 9370  6713  6708 1
 9371  6714  6708 1
 9372  6718  6715 1
 9373  6719  6715 1
 9374  6720  6716 1
 9375  6721  6717 1
 9376  6722  6717 1
 9377  6723  6717 1
 9378  6727  6724 1
 9379  6728  6724 1
 9380  6729  6725 1
 9381  6730  6726 1
 9382  6731  6726 1
 9383  6732  6726 1
 9384  6736  6733 1
 9385  6737  6733 1
 9386  6738  6734 1
 9387  6739  6735 1
 9388  6740  6735 1
 9389  6741  6735 1
 9390  6745  6742 1
 9391  6746  6742 1
 9392  6747  6743 1
 9393  6748  6744 1
 9394  6749  6744 1
 9395  6750  6744 1
 9396  6754  6751 1
 9397  6755  6751 1
 9398  6756  6752 1
 9399  6757  6753 1
 9400  6758  6753 1
 9401  6759  6753 1
 9402  6763  6760 1
 9403  6764  6760 1
 9404  6765  6761 1
 9405  6766  6762 1
 9406  6767  6762 1
 9407  6768  6762 1
 9408  6772  6769 1
 9409  6773  6769 1
 9410  6774  6770 1
 9411  6775  6771 1
 9412  6776  6771 1
 9413  6777  6771 1
 9414  6781  6778 1
 9415  6782  6778 1
 9416  6783  6779 1
 9417  6784  6780 1
 9418  6785  6780 1
 9419  6786  6780 1
 9420  6790  6787 1
 9421  6791  6787 1
 9422  6792  6788 1
 9423  6793  6789 1
 9424  6794  6789 1
 9425  6795  6789 1
 9426  6799  6796 1
 9427  6800  6796 1
 9428  6801  6797 1
 9429  6802  6798 1
 9430  6803  6798 1
 9431  6804  6798 1
 9432  6808  6805 1
 9433  6809  6805 1
 9434  6810  6806 1
 9435  6811  6807 1
 9436  6812  6807 1
 9437  6813  6807 1
 9438  6817  6814 1
 9439  6818  6814 1
 9440  6819  6815 1
 9441  6820  6816 1
 9442  6821  6816 1
 9443  6822  6816 1
 9444  6826  6823 1
 9445  6827  6823 1
 9446  6828  6824 1
 9447  6829  6825 1
 9448  6830  6825 1
 9449  6831  6825 1
 9450  6835  6832 1
 9451  6836  6832 1
 9452  6837  6833 1
 9453  6838  6834 1
 9454  6839  6834 1
 9455  6840  6834 1
 9456  6844  6841 1
 9457  6845  6841 1
 9458  6846  6842 1
 9459  6847  6843 1
 9460  6848  6843 1
 9461  6849  6843 1
 9462  6853  6850 1
 9463  6854  6850 1
 9464  6855  6851 1
 9465  6856  6852 1
 9466  6857  6852 1
 9467  6858  6852 1
 9468  6862  6859 1
 9469  6863  6859 1
 9470  6864  6860 1
 9471  6865  6861 1
 9472  6866  6861 1
 9473  6867  6861 1
 9474  6871  6868 1
 9475  6872  6868 1
 9476  6873  6869 1
 9477  6874  6870 1
 9478  6875  6870 1
 9479  6876  6870 1
 9480  6880  6877 1
 9481  6881  6877 1
 9482  6882  6878 1
 9483  6883  6879 1
 9484  6884  6879 1
 9485  6885  6879 1
 9486  6889  6886 1
 9487  6890  6886 1
 9488  6891  6887 1
 9489  6892  6888 1
 9490  6893  6888 1
 9491  6894  6888 1
 9492  6898  6895 1
 9493  6899  6895 1
 9494  6900  6896 1
 9495  6901  6897 1
 9496  6902  6897 1
 9497  6903  6897 1
 9498  6907  6904 1
 9499  6908  6904 1
 9500  6909  6905 1
 9501  6910  6906 1
 9502  6911  6906 1
 9503  6912  6906 1
 9504  6916  6913 1
 9505  6917  6913 1
 9506  6918  6914 1
 9507  6919  6915 1
 9508  6920  6915 1
 9509  6921  6915 1
 9510  6925  6922 1
 9511  6926  6922 1
 9512  6927  6923 1
 9513  6928  6924 1
 9514  6929  6924 1
 9515  6930  6924 1
 9516  6934  6931 1
 9517  6935  6931 1
 9518  6936  6932 1
 9519  6937  6933 1
 9520  6938  6933 1
 9521  6939  6933 1
 9522  6943  6940 1
 9523  6944  6940 1
 9524  6945  6941 1
 9525  6946  6942 1
 9526  6947  6942 1
 9527  6948  6942 1
 9528  6952  6949 1
 9529  6953  6949 1
 9530  6954  6950 1
 9531  6955  6951 1
 9532  6956  6951 1
 9533  6957  6951 1
 9534  6961  6958 1
 9535  6962  6958 1
 9536  6963  6959 1
 9537  6964  6960 1
 9538  6965  6960 1
 9539  6966  6960 1
 9540  6970  6967 1
 9541  6971  6967 1
 9542  6972  6968 1
 9543  6973  6969 1
 9544  6974  6969 1
 9545  6975  6969 1
 9546  6979  6976 1
 9547  6980  6976 1
 9548  6981  6977 1
 9549  6982  6978 1
 9550  6983  6978 1
 9551  6984  6978 1
 9552  6988  6985 1
 9553  6989  6985 1
 9554  6990  6986 1
 9555  6991  6987 1
 9556  6992  6987 1
 9557  6993  6987 1
 9558  6997  6994 1
 9559  6998  6994 1
 9560  6999  6995 1
 9561  7000  6996 1
 9562  7001  6996 1
 9563  7002  6996 1
 9564  7006  7003 1
 9565  7007  7003 1
 9566  7008  7004 1
 9567  7009  7005 1
 9568  7010  7005 1
 9569  7011  7005 1
 9570  7015  7012 1
 9571  7016  7012 1
 9572  7017  7013 1
 9573  7018  7014 1
 9574  7019  7014 1
 9575  7020  7014 1
 9576  7024  7021 1
 9577  7025  7021 1
 9578  7026  7022 1
 9579  7027  7023 1
 9580  7028  7023 1
 9581  7029  7023 1
 9582  7033  7030 1
 9583  7034  7030 1
 9584  7035  7031 1
 9585  7036  7032 1
 9586  7037  7032 1
 9587  7038  7032 1
 9588  7042  7039 1
 9589  7043  7039 1
 9590  7044  7040 1
 9591  7045  7041 1
 9592  7046  7041 1
 9593  7047  7041 1
 9594  7051  7048 1
 9595  7052  7048 1
 9596  7053  7049 1
 9597  7054  7050 1
 9598  7055  7050 1
 9599  7056  7050 1
 9600  7060  7057 1
 9601  7061  7057 1
 9602  7062  7058 1
 9603  7063  7059 1
 9604  7064  7059 1
 9605  7065  7059 1
 9606  7069  7066 1
 9607  7070  7066 1
 9608  7071  7067 1
 9609  7072  7068 1
 9610  7073  7068 1
 9611  7074  7068 1
 9612  7078  7075 1
 9613  7079  7075 1
 9614  7080  7076 1
 9615  7081  7077 1
 9616  7082  7077 1
 9617  7083  7077 1
 9618  7087  7084 1
 9619  7088  7084 1
 9620  7089  7085 1
 9621  7090  7086 1
 9622  7091  7086 1
 9623  7092  7086 1
 9624  7096  7093 1
 9625  7097  7093 1
 9626  7098  7094 1
 9627  7099  7095 1
 9628  7100  7095 1
 9629  7101  7095 1
 9630  7105  7102 1
 9631  7106  7102 1
 9632  7107  7103 1
 9633  7108  7104 1
 9634  7109  7104 1
 9635  7110  7104 1
 9636  7114  7111 1
 9637  7115  7111 1
 9638  7116  7112 1
 9639  7117  7113 1
 9640  7118  7113 1
 9641  7119  7113 1
 9642  7123  7120 1
 9643  7124  7120 1
 9644  7125  7121 1
 9645  7126  7122 1
 9646  7127  7122 1
 9647  7128  7122 1
 9648  7132  7129 1
 9649  7133  7129 1
 9650  7134  7130 1
 9651  7135  7131 1
 9652  7136  7131 1
 9653  7137  7131 1
 9654  7141  7138 1
 9655  7142  7138 1
 9656  7143  7139 1
 9657  7144  7140 1
 9658  7145  7140 1
 9659  7146  7140 1
 9660  7150  7147 1
 9661  7151  7147 1
 9662  7152  7148 1
 9663  7153  7149 1
 9664  7154  7149 1
 9665  7155  7149 1
 9666  7159  7156 1
 9667  7160  7156 1
 9668  7161  7157 1
 9669  7162  7158 1
 9670  7163  7158 1
 9671  7164  7158 1
 9672  7168  7165 1
 9673  7169  7165 1
 9674  7170  7166 1
 9675  7171  7167 1
 9676  7172  7167 1
 9677  7173  7167 1
 9678  7177  7174 1
 9679  7178  7174 1
 9680  7179  7175 1
 9681  7180  7176 1
 9682  7181  7176 1
 9683  7182  7176 1
 9684  7186  7183 1
 9685  7187  7183 1
 9686  7188  7184 1
 9687  7189  7185 1
 9688  7190  7185 1
 9689  7191  7185 1
 9690  7195  7192 1
 9691  7196  7192 1
 9692  7197  7193 1
 9693  7198  7194 1
 9694  7199  7194 1
 9695  7200  7194 1
 9696  7204  7201 1
 9697  7205  7201 1
 9698  7206  7202 1
 9699  7207  7203 1
 9700  7208  7203 1
 9701  7209  7203 1
 9702  7213  7210 1
 9703  7214  7210 1
 9704  7215  7211 1
 9705  7216  7212 1
 9706  7217  7212 1
 9707  7218  7212 1
 9708  7222  7219 1
 9709  7223  7219 1
 9710  7224  7220 1
 9711  7225  7221 1
 9712  7226  7221 1
 9713  7227  7221 1
 9714  7231  7228 1
 9715  7232  7228 1
 9716  7233  7229 1
 9717  7234  7230 1
 9718  7235  7230 1
 9719  7236  7230 1
 9720  7240  7237 1
 9721  7241  7237 1
 9722  7242  7238 1
 9723  7243  7239 1
 9724  7244  7239 1
 9725  7245  7239 1
 9726  7249  7246 1
 9727  7250  7246 1
 9728  7251  7247 1
 9729  7252  7248 1
 9730  7253  7248 1
 9731  7254  7248 1
 9732  7258  7255 1
 9733  7259  7255 1
 9734  7260  7256 1
 9735  7261  7257 1
 9736  7262  7257 1
 9737  7263  7257 1
 9738  7267  7264 1
 9739  7268  7264 1
 9740  7269  7265 1
 9741  7270  7266 1
 9742  7271  7266 1
 9743  7272  7266 1
 9744  7276  7273 1
 9745  7277  7273 1
 9746  7278  7274 1
 9747  7279  7275 1
 9748  7280  7275 1
 9749  7281  7275 1
 9750  7285  7282 1
 9751  7286  7282 1
 9752  7287  7283 1
 9753  7288  7284 1
 9754  7289  7284 1
 9755  7290  7284 1
 9756  7294  7291 1
 9757  7295  7291 1
 9758  7296  7292 1
 9759  7297  7293 1
 9760  7298  7293 1
 9761  7299  7293 1
 9762  7303  7300 1
 9763  7304  7300 1
 9764  7305  7301 1
 9765  7306  7302 1
 9766  7307  7302 1
 9767  7308  7302 1
 9768  7312  7309 1
 9769  7313  7309 1
 9770  7314  7310 1
 9771  7315  7311 1
 9772  7316  7311 1
 9773  7317  7311 1
 9774  7321  7318 1
 9775  7322  7318 1
 9776  7323  7319 1
 9777  7324  7320 1
 9778  7325  7320 1
 9779  7326  7320 1
 9780  7330  7327 1
 9781  7331  7327 1
 9782  7332  7328 1
 9783  7333  7329 1
 9784  7334  7329 1
 9785  7335  7329 1
 9786  7339  7336 1
 9787  7340  7336 1
 9788  7341  7337 1
 9789  7342  7338 1
 9790  7343  7338 1
 9791  7344  7338 1
 9792  7348  7345 1
 9793  7349  7345 1
 9794  7350  7346 1
 9795  7351  7347 1
 9796  7352  7347 1
 9797  7353  7347 1
 9798  7357  7354 1
 9799  7358  7354 1
 9800  7359  7355 1
 9801  7360  7356 1
 9802  7361  7356 1
 9803  7362  7356 1
 9804  7366  7363 1
 9805  7367  7363 1
 9806  7368  7364 1
 9807  7369  7365 1
 9808  7370  7365 1
 9809  7371  7365 1
 9810  7375  7372 1
 9811  7376  7372 1
 9812  7377  7373 1
 9813  7378  7374 1
 9814  7379  7374 1
 9815  7380  7374 1
 9816  7384  7381 1
 9817  7385  7381 1
 9818  7386  7382 1
 9819  7387  7383 1
 9820  7388  7383 1
 9821  7389  7383 1
 9822  7393  7390 1
 9823  7394  7390 1
 9824  7395  7391 1
 9825  7396  7392 1
 9826  7397  7392 1
 9827  7398  7392 1
 9828  7402  7399 1
 9829  7403  7399 1
 9830  7404  7400 1
 9831  7405  7401 1
 9832  7406  7401 1
 9833  7407  7401 1
 9834  7411  7408 1
 9835  7412  7408 1
 9836  7413  7409 1
 9837  7414  7410 1
 9838  7415  7410 1
 9839  7416  7410 1
 9840  7420  7417 1
 9841  7421  7417 1
 9842  7422  7418 1
 9843  7423  7419 1
 9844  7424  7419 1
 9845  7425  7419 1
 9846  7429  7426 1
 9847  7430  7426 1
 9848  7431  7427 1
 9849  7432  7428 1
 9850  7433  7428 1
 9851  7434  7428 1
 9852  7438  7435 1
 9853  7439  7435 1
 9854  7440  7436 1
 9855  7441  7437 1
 9856  7442  7437 1
 9857  7443  7437 1
 9858  7447  7444 1
 9859  7448  7444 1
 9860  7449  7445 1
 9861  7450  7446 1
 9862  7451  7446 1
 9863  7452  7446 1
 9864  7456  7453 1
 9865  7457  7453 1
 9866  7458  7454 1
 9867  7459  7455 1
 9868  7460  7455 1
 9869  7461  7455 1
 9870  7465  7462 1
 9871  7466  7462 1
 9872  7467  7463 1
 9873  7468  7464 1
 9874  7469  7464 1
 9875  7470  7464 1
 9876  7474  7471 1
 9877  7475  7471 1
 9878  7476  7472 1
 9879  7477  7473 1
 9880  7478  7473 1
 9881  7479  7473 1
 9882  7483  7480 1
 9883  7484  7480 1
 9884  7485  7481 1
 9885  7486  7482 1
 9886  7487  7482 1
 9887  7488  7482 1
 9888  7492  7489 1
 9889  7493  7489 1
 9890  7494  7490 1
 9891  7495  7491 1
 9892  7496  7491 1
 9893  7497  7491 1
 9894  7501  7498 1
 9895  7502  7498 1
 9896  7503  7499 1
 9897  7504  7500 1
 9898  7505  7500 1
 9899  7506  7500 1
 9900  7510  7507 1
 9901  7511  7507 1
 9902  7512  7508 1
 9903  7513  7509 1
 9904  7514  7509 1
 9905  7515  7509 1
 9906  7519  7516 1
 9907  7520  7516 1
 9908  7521  7517 1
 9909  7522  7518 1
 9910  7523  7518 1
 9911  7524  7518 1
 9912  7528  7525 1
 9913  7529  7525 1
 9914  7530  7526 1
 9915  7531  7527 1
 9916  7532  7527 1
 9917  7533  7527 1
 9918  7537  7534 1
 9919  7538  7534 1
 9920  7539  7535 1
 9921  7540  7536 1
 9922  7541  7536 1
 9923  7542  7536 1
 9924  7546  7543 1
 9925  7547  7543 1
 9926  7548  7544 1
 9927  7549  7545 1
 9928  7550  7545 1
 9929  7551  7545 1
 9930  7555  7552 1
 9931  7556  7552 1
 9932  7557  7553 1
 9933  7558  7554 1
 9934  7559  7554 1
 9935  7560  7554 1
 9936  7564  7561 1
 9937  7565  7561 1
 9938  7566  7562 1
 9939  7567  7563 1
 9940  7568  7563 1
 9941  7569  7563 1
 9942  7573  7570 1
 9943  7574  7570 1
 9944  7575  7571 1
 9945  7576  7572 1
 9946  7577  7572 1
 9947  7578  7572 1
 9948  7582  7579 1
 9949  7583  7579 1
 9950  7584  7580 1
 9951  7585  7581 1
 9952  7586  7581 1
 9953  7587  7581 1
 9954  7591  7588 1
 9955  7592  7588 1
 9956  7593  7589 1
 9957  7594  7590 1
 9958  7595  7590 1
 9959  7596  7590 1
 9960  7600  7597 1
 9961  7601  7597 1
 9962  7602  7598 1
 9963  7603  7599 1
 9964  7604  7599 1
 9965  7605  7599 1
 9966  7609  7606 1
 9967  7610  7606 1
 9968  7611  7607 1
 9969  7612  7608 1
 9970  7613  7608 1
 9971  7614  7608 1
 9972  7618  7615 1
 9973  7619  7615 1
 9974  7620  7616 1
 9975  7621  7617 1
 9976  7622  7617 1
 9977  7623  7617 1
 9978  7627  7624 1
 9979  7628  7624 1
 9980  7629  7625 1
 9981  7630  7626 1
 9982  7631  7626 1
 9983  7632  7626 1
 9984  7636  7633 1
 9985  7637  7633 1
 9986  7638  7634 1
 9987  7639  7635 1
 9988  7640  7635 1
 9989  7641  7635 1
 9990  7645  7642 1
 9991  7646  7642 1
 9992  7647  7643 1
 9993  7648  7644 1
 9994  7649  7644 1
 9995  7650  7644 1
 9996  7654  7651 1
 9997  7655  7651 1
 9998  7656  7652 1
 9999  7657  7653 1
10000  7658  7653 1
10001  7659  7653 1
10002  7663  7660 1
10003  7664  7660 1
10004  7665  7661 1
10005  7666  7662 1
10006  7667  7662 1
10007  7668  7662 1
10008  7672  7669 1
10009  7673  7669 1
10010  7674  7670 1
10011  7675  7671 1
10012  7676  7671 1
10013  7677  7671 1
10014  7681  7678 1
10015  7682  7678 1
10016  7683  7679 1
10017  7684  7680 1
10018  7685  7680 1
10019  7686  7680 1
10020  7690  7687 1
10021  7691  7687 1
10022  7692  7688 1
10023  7693  7689 1
10024  7694  7689 1
10025  7695  7689 1
10026  7699  7696 1
10027  7700  7696 1
10028  7701  7697 1
10029  7702  7698 1
10030  7703  7698 1
10031  7704  7698 1
10032  7708  7705 1
10033  7709  7705 1
10034  7710  7706 1
10035  7711  7707 1
10036  7712  7707 1
10037  7713  7707 1
10038  7717  7714 1
10039  7718  7714 1
10040  7719  7715 1
10041  7720  7716 1
10042  7721  7716 1
10043  7722  7716 1
10044  7726  7723 1
10045  7727  7723 1
10046  7728  7724 1
10047  7729  7725 1
10048  7730  7725 1
10049  7731  7725 1
10050  7735  7732 1
10051  7736  7732 1
10052  7737  7733 1
10053  7738  7734 1
10054  7739  7734 1
10055  7740  7734 1
10056  7744  7741 1
10057  7745  7741 1
10058  7746  7742 1
10059  7747  7743 1
10060  7748  7743 1
10061  7749  7743 1
10062  7753  7750 1
10063  7754  7750 1
10064  7755  7751 1
10065  7756  7752 1
10066  7757  7752 1
10067  7758  7752 1
10068  7762  7759 1
10069  7763  7759 1
10070  7764  7760 1
10071  7765  7761 1
10072  7766  7761 1
10073  7767  7761 1
10074  7771  7768 1
10075  7772  7768 1
10076  7773  7769 1
10077  7774  7770 1
10078  7775  7770 1
10079  7776  7770 1
10080  7780  7777 1
10081  7781  7777 1
10082  7782  7778 1
10083  7783  7779 1
10084  7784  7779 1
10085  7785  7779 1
10086  7789  7786 1
10087  7790  7786 1
10088  7791  7787 1
10089  7792  7788 1
10090  7793  7788 1
10091  7794  7788 1
10092  7798  7795 1
10093  7799  7795 1
10094  7800  7796 1
10095  7801  7797 1
10096  7802  7797 1
10097  7803  7797 1
10098  7807  7804 1
10099  7808  7804 1
10100  7809  7805 1
10101  7810  7806 1
10102  7811  7806 1
10103  7812  7806 1
10104  7816  7813 1
10105  7817  7813 1
10106  7818  7814 1
10107  7819  7815 1
10108  7820  7815 1
10109  7821  7815 1
10110  7825  7822 1
10111  7826  7822 1
10112  7827  7823 1
10113  7828  7824 1
10114  7829  7824 1
10115  7830  7824 1
10116  7834  7831 1
10117  7835  7831 1
10118  7836  7832 1
10119  7837  7833 1
10120  7838  7833 1
10121  7839  7833 1
10122  7843  7840 1
10123  7844  7840 1
10124  7845  7841 1
10125  7846  7842 1
10126  7847  7842 1
10127  7848  7842 1
10128  7852  7849 1
10129  7853  7849 1
10130  7854  7850 1
10131  7855  7851 1
10132  7856  7851 1
10133  7857  7851 1
10134  7861  7858 1
10135  7862  7858 1
10136  7863  7859 1
10137  7864  7860 1
10138  7865  7860 1
10139  7866  7860 1
10140  7870  7867 1
10141  7871  7867 1
10142  7872  7868 1
10143  7873  7869 1
10144  7874  7869 1
10145  7875  7869 1
10146  7879  7876 1
10147  7880  7876 1
10148  7881  7877 1
10149  7882  7878 1
10150  7883  7878 1
10151  7884  7878 1
10152  7888  7885 1
10153  7889  7885 1
10154  7890  7886 1
10155  7891  7887 1
10156  7892  7887 1
10157  7893  7887 1
10158  7897  7894 1
10159  7898  7894 1
10160  7899  7895 1
10161  7900  7896 1
10162  7901  7896 1
10163  7902  7896 1
10164  7906  7903 1
10165  7907  7903 1
10166  7908  7904 1
10167  7909  7905 1
10168  7910  7905 1
10169  7911  7905 1
10170  7915  7912 1
10171  7916  7912 1
10172  7917  7913 1
10173  7918  7914 1
10174  7919  7914 1
10175  7920  7914 1
10176  7924  7921 1
10177  7925  7921 1
10178  7926  7922 1
10179  7927  7923 1
10180  7928  7923 1
10181  7929  7923 1
10182  7933  7930 1
10183  7934  7930 1
10184  7935  7931 1
10185  7936  7932 1
10186  7937  7932 1
10187  7938  7932 1
10188  7942  7939 1
10189  7943  7939 1
10190  7944  7940 1
10191  7945  7941 1
10192  7946  7941 1
10193  7947  7941 1
10194  7951  7948 1
10195  7952  7948 1
10196  7953  7949 1
10197  7954  7950 1
10198  7955  7950 1
10199  7956  7950 1
10200  7960  7957 1
10201  7961  7957 1
10202  7962  7958 1
10203  7963  7959 1
10204  7964  7959 1
10205  7965  7959 1
10206  7969  7966 1
10207  7970  7966 1
10208  7971  7967 1
10209  7972  7968 1
10210  7973  7968 1
10211  7974  7968 1
10212  7978  7975 1
10213  7979  7975 1
10214  7980  7976 1
10215  7981  7977 1
10216  7982  7977 1
10217  7983  7977 1
10218  7987  7984 1
10219  7988  7984 1
10220  7989  7985 1
10221  7990  7986 1
10222  7991  7986 1
10223  7992  7986 1
10224  7996  7993 1
10225  7997  7993 1
10226  7998  7994 1
10227  7999  7995 1
10228  8000  7995 1
10229  8001  7995 1
10230  8005  8002 1
10231  8006  8002 1
10232  8007  8003 1
10233  8008  8004 1
10234  8009  8004 1
10235  8010  8004 1
10236  8014  8011 1
10237  8015  8011 1
10238  8016  8012 1
10239  8017  8013 1
10240  8018  8013 1
10241  8019  8013 1
10242  8023  8020 1
10243  8024  8020 1
10244  8025  8021 1
10245  8026  8022 1
10246  8027  8022 1
10247  8028  8022 1
10248  8032  8029 1
10249  8033  8029 1
10250  8034  8030 1
10251  8035  8031 1
10252  8036  8031 1
10253  8037  8031 1
10254  8041  8038 1
10255  8042  8038 1
10256  8043  8039 1
10257  8044  8040 1
10258  8045  8040 1
10259  8046  8040 1
10260  8050  8047 1
10261  8051  8047 1
10262  8052  8048 1
10263  8053  8049 1
10264  8054  8049 1
10265  8055  8049 1
10266  8059  8056 1
10267  8060  8056 1
10268  8061  8057 1
10269  8062  8058 1
10270  8063  8058 1
10271  8064  8058 1
10272  8068  8065 1
10273  8069  8065 1
10274  8070  8066 1
10275  8071  8067 1
10276  8072  8067 1
10277  8073  8067 1
10278  8077  8074 1
10279  8078  8074 1
10280  8079  8075 1
10281  8080  8076 1
10282  8081  8076 1
10283  8082  8076 1
10284  8086  8083 1
10285  8087  8083 1
10286  8088  8084 1
10287  8089  8085 1
10288  8090  8085 1
10289  8091  8085 1
10290  8095  8092 1
10291  8096  8092 1
10292  8097  8093 1
10293  8098  8094 1
10294  8099  8094 1
10295  8100  8094 1
10296  8104  8101 1
10297  8105  8101 1
10298  8106  8102 1
10299  8107  8103 1
10300  8108  8103 1
10301  8109  8103 1
10302  8113  8110 1
10303  8114  8110 1
10304  8115  8111 1
10305  8116  8112 1
10306  8117  8112 1
10307  8118  8112 1
10308  8122  8119 1
10309  8123  8119 1
10310  8124  8120 1
10311  8125  8121 1
10312  8126  8121 1
10313  8127  8121 1
10314  8131  8128 1
10315  8132  8128 1
10316  8133  8129 1
10317  8134  8130 1
10318  8135  8130 1
10319  8136  8130 1
10320  8140  8137 1
10321  8141  8137 1
10322  8142  8138 1
10323  8143  8139 1
10324  8144  8139 1
10325  8145  8139 1
10326  8149  8146 1
10327  8150  8146 1
10328  8151  8147 1
10329  8152  8148 1
10330  8153  8148 1
10331  8154  8148 1
10332  8158  8155 1
10333  8159  8155 1
10334  8160  8156 1
10335  8161  8157 1
10336  8162  8157 1
10337  8163  8157 1
10338  8167  8164 1
10339  8168  8164 1
10340  8169  8165 1
10341  8170  8166 1
10342  8171  8166 1
10343  8172  8166 1
10344  8176  8173 1
10345  8177  8173 1
10346  8178  8174 1
10347  8179  8175 1
10348  8180  8175 1
10349  8181  8175 1
10350  8185  8182 1
10351  8186  8182 1
10352  8187  8183 1
10353  8188  8184 1
10354  8189  8184 1
10355  8190  8184 1
10356  8194  8191 1
10357  8195  8191 1
10358  8196  8192 1
10359  8197  8193 1
10360  8198  8193 1
10361  8199  8193 1
10362  8203  8200 1
10363  8204  8200 1
10364  8205  8201 1
10365  8206  8202 1
10366  8207  8202 1
10367  8208  8202 1
10368  8212  8209 1
10369  8213  8209 1
10370  8214  8210 1
10371  8215  8211 1
10372  8216  8211 1
10373  8217  8211 1
10374  8221  8218 1
10375  8222  8218 1
10376  8223  8219 1
10377  8224  8220 1
10378  8225  8220 1
10379  8226  8220 1
10380  8230  8227 1
10381  8231  8227 1
10382  8232  8228 1
10383  8233  8229 1
10384  8234  8229 1
10385  8235  8229 1
10386  8239  8236 1
10387  8240  8236 1
10388  8241  8237 1
10389  8242  8238 1
10390  8243  8238 1
10391  8244  8238 1
10392  8248  8245 1
10393  8249  8245 1
10394  8250  8246 1
10395  8251  8247 1
10396  8252  8247 1
10397  8253  8247 1
10398  8257  8254 1
10399  8258  8254 1
10400  8259  8255 1
10401  8260  8256 1
10402  8261  8256 1
10403  8262  8256 1
10404  8266  8263 1
10405  8267  8263 1
10406  8268  8264 1
10407  8269  8265 1
10408  8270  8265 1
10409  8271  8265 1
10410  8275  8272 1
10411  8276  8272 1
10412  8277  8273 1
10413  8278  8274 1
10414  8279  8274 1
10415  8280  8274 1
10416  8284  8281 1
10417  8285  8281 1
10418  8286  8282 1
10419  8287  8283 1
10420  8288  8283 1
10421  8289  8283 1
10422  8293  8290 1
10423  8294  8290 1
10424  8295  8291 1
10425  8296  8292 1
10426  8297  8292 1
10427  8298  8292 1
10428  8302  8299 1
10429  8303  8299 1
10430  8304  8300 1
10431  8305  8301 1
10432  8306  8301 1
10433  8307  8301 1
10434  8311  8308 1
10435  8312  8308 1
10436  8313  8309 1
10437  8314  8310 1
10438  8315  8310 1
10439  8316  8310 1
10440  8320  8317 1
10441  8321  8317 1
10442  8322  8318 1
10443  8323  8319 1
10444  8324  8319 1
10445  8325  8319 1
10446  8329  8326 1
10447  8330  8326 1
10448  8331  8327 1
10449  8332  8328 1
10450  8333  8328 1
10451  8334  8328 1
10452  8338  8335 1
10453  8339  8335 1
10454  8340  8336 1
10455  8341  8337 1
10456  8342  8337 1
10457  8343  8337 1
10458  8347  8344 1
10459  8348  8344 1
10460  8349  8345 1
10461  8350  8346 1
10462  8351  8346 1
10463  8352  8346 1
10464  8356  8353 1
10465  8357  8353 1
10466  8358  8354 1
10467  8359  8355 1
10468  8360  8355 1
10469  8361  8355 1
10470  8365  8362 1
10471  8366  8362 1
10472  8367  8363 1
10473  8368  8364 1
10474  8369  8364 1
10475  8370  8364 1
10476  8374  8371 1
10477  8375  8371 1
10478  8376  8372 1
10479  8377  8373 1
10480  8378  8373 1
10481  8379  8373 1
10482  8383  8380 1
10483  8384  8380 1
10484  8385  8381 1
10485  8386  8382 1
10486  8387  8382 1
10487  8388  8382 1
10488  8392  8389 1
10489  8393  8389 1
10490  8394  8390 1
10491  8395  8391 1
10492  8396  8391 1
10493  8397  8391 1
10494  8401  8398 1
10495  8402  8398 1
10496  8403  8399 1
10497  8404  8400 1
10498  8405  8400 1
10499  8406  8400 1
10500  8410  8407 1
10501  8411  8407 1
10502  8412  8408 1
10503  8413  8409 1
10504  8414  8409 1
10505  8415  8409 1
10506  8419  8416 1
10507  8420  8416 1
10508  8421  8417 1
10509  8422  8418 1
10510  8423  8418 1
10511  8424  8418 1
10512  8428  8425 1
10513  8429  8425 1
10514  8430  8426 1
10515  8431  8427 1
10516  8432  8427 1
10517  8433  8427 1
10518  8437  8434 1
10519  8438  8434 1
10520  8439  8435 1
10521  8440  8436 1
10522  8441  8436 1
10523  8442  8436 1
10524  8446  8443 1
10525  8447  8443 1
10526  8448  8444 1
10527  8449  8445 1
10528  8450  8445 1
10529  8451  8445 1
10530  8455  8452 1
10531  8456  8452 1
10532  8457  8453 1
10533  8458  8454 1
10534  8459  8454 1
10535  8460  8454 1
10536  8464  8461 1
10537  8465  8461 1
10538  8466  8462 1
10539  8467  8463 1
10540  8468  8463 1
10541  8469  8463 1
10542  8473  8470 1
10543  8474  8470 1
10544  8475  8471 1
10545  8476  8472 1
10546  8477  8472 1
10547  8478  8472 1
10548  8482  8479 1
10549  8483  8479 1
10550  8484  8480 1
10551  8485  8481 1
10552  8486  8481 1
10553  8487  8481 1
10554  8491  8488 1
10555  8492  8488 1
10556  8493  8489 1
10557  8494  8490 1
10558  8495  8490 1
10559  8496  8490 1
10560  8500  8497 1
10561  8501  8497 1
10562  8502  8498 1
10563  8503  8499 1
10564  8504  8499 1
10565  8505  8499 1
10566  8509  8506 1
10567  8510  8506 1
10568  8511  8507 1
10569  8512  8508 1
10570  8513  8508 1
10571  8514  8508 1
10572  8518  8515 1
10573  8519  8515 1
10574  8520  8516 1
10575  8521  8517 1
10576  8522  8517 1
10577  8523  8517 1
10578  8527  8524 1
10579  8528  8524 1
10580  8529  8525 1
10581  8530  8526 1
10582  8531  8526 1
10583  8532  8526 1
10584  8536  8533 1
10585  8537  8533 1
10586  8538  8534 1
10587  8539  8535 1
10588  8540  8535 1
10589  8541  8535 1
10590  8545  8542 1
10591  8546  8542 1
10592  8547  8543 1
10593  8548  8544 1
10594  8549  8544 1
10595  8550  8544 1
10596  8554  8551 1
10597  8555  8551 1
10598  8556  8552 1
10599  8557  8553 1
10600  8558  8553 1
10601  8559  8553 1
10602  8563  8560 1
10603  8564  8560 1
10604  8565  8561 1
10605  8566  8562 1
10606  8567  8562 1
10607  8568  8562 1
10608  8572  8569 1
10609  8573  8569 1
10610  8574  8570 1
10611  8575  8571 1
10612  8576  8571 1
10613  8577  8571 1
10614  8581  8578 1
10615  8582  8578 1
10616  8583  8579 1
10617  8584  8580 1
10618  8585  8580 1
10619  8586  8580 1
10620  8590  8587 1
10621  8591  8587 1
10622  8592  8588 1
10623  8593  8589 1
10624  8594  8589 1
10625  8595  8589 1
10626  8599  8596 1
10627  8600  8596 1
10628  8601  8597 1
10629  8602  8598 1
10630  8603  8598 1
10631  8604  8598 1
10632  8608  8605 1
10633  8609  8605 1
10634  8610  8606 1
10635  8611  8607 1
10636  8612  8607 1
10637  8613  8607 1
10638  8617  8614 1
10639  8618  8614 1
10640  8619  8615 1
10641  8620  8616 1
10642  8621  8616 1
10643  8622  8616 1
10644  8626  8623 1
10645  8627  8623 1
10646  8628  8624 1
10647  8629  8625 1
10648  8630  8625 1
10649  8631  8625 1
10650  8635  8632 1
10651  8636  8632 1
10652  8637  8633 1
10653  8638  8634 1
10654  8639  8634 1
10655  8640  8634 1
10656  8644  8641 1
10657  8645  8641 1
10658  8646  8642 1
10659  8647  8643 1
10660  8648  8643 1
10661  8649  8643 1
10662  8653  8650 1
10663  8654  8650 1
10664  8655  8651 1
10665  8656  8652 1
10666  8657  8652 1
10667  8658  8652 1
10668  8662  8659 1
10669  8663  8659 1
10670  8664  8660 1
10671  8665  8661 1
10672  8666  8661 1
10673  8667  8661 1
10674  8671  8668 1
10675  8672  8668 1
10676  8673  8669 1
10677  8674  8670 1
10678  8675  8670 1
10679  8676  8670 1
10680  8680  8677 1
10681  8681  8677 1
10682  8682  8678 1
10683  8683  8679 1
10684  8684  8679 1
10685  8685  8679 1
10686  8689  8686 1
10687  8690  8686 1
10688  8691  8687 1
10689  8692  8688 1
10690  8693  8688 1
10691  8694  8688 1
10692  8698  8695 1
10693  8699  8695 1
10694  8700  8696 1
10695  8701  8697 1
10696  8702  8697 1
10697  8703  8697 1
10698  8707  8704 1
10699  8708  8704 1
10700  8709  8705 1
10701  8710  8706 1
10702  8711  8706 1
10703  8712  8706 1
10704  8716  8713 1
10705  8717  8713 1
10706  8718  8714 1
10707  8719  8715 1
10708  8720  8715 1
10709  8721  8715 1
10710  8725  8722 1
10711  8726  8722 1
10712  8727  8723 1
10713  8728  8724 1
10714  8729  8724 1
10715  8730  8724 1
10716  8734  8731 1
10717  8735  8731 1
10718  8736  8732 1
10719  8737  8733 1
10720  8738  8733 1
10721  8739  8733 1
10722  8743  8740 1
10723  8744  8740 1
10724  8745  8741 1
10725  8746  8742 1
10726  8747  8742 1
10727  8748  8742 1
10728  8752  8749 1
10729  8753  8749 1
10730  8754  8750 1
10731  8755  8751 1
10732  8756  8751 1
10733  8757  8751 1
10734  8761  8758 1
10735  8762  8758 1
10736  8763  8759 1
10737  8764  8760 1
10738  8765  8760 1
10739  8766  8760 1
10740  8770  8767 1
10741  8771  8767 1
10742  8772  8768 1
10743  8773  8769 1
10744  8774  8769 1
10745  8775  8769 1
10746  8779  8776 1
10747  8780  8776 1
10748  8781  8777 1
10749  8782  8778 1
10750  8783  8778 1
10751  8784  8778 1
10752  8788  8785 1
10753  8789  8785 1
10754  8790  8786 1
10755  8791  8787 1
10756  8792  8787 1
10757  8793  8787 1
10758  8797  8794 1
10759  8798  8794 1
10760  8799  8795 1
10761  8800  8796 1
10762  8801  8796 1
10763  8802  8796 1
10764  8806  8803 1
10765  8807  8803 1
10766  8808  8804 1
10767  8809  8805 1
10768  8810  8805 1
10769  8811  8805 1
10770  8815  8812 1
10771  8816  8812 1
10772  8817  8813 1
10773  8818  8814 1
10774  8819  8814 1
10775  8820  8814 1
10776  8824  8821 1
10777  8825  8821 1
10778  8826  8822 1
10779  8827  8823 1
10780  8828  8823 1
10781  8829  8823 1
10782  8833  8830 1
10783  8834  8830 1
10784  8835  8831 1
10785  8836  8832 1
10786  8837  8832 1
10787  8838  8832 1
10788  8842  8839 1
10789  8843  8839 1
10790  8844  8840 1
10791  8845  8841 1
10792  8846  8841 1
10793  8847  8841 1
10794  8851  8848 1
10795  8852  8848 1
10796  8853  8849 1
10797  8854  8850 1
10798  8855  8850 1
10799  8856  8850 1
10800  8860  8857 1
10801  8861  8857 1
10802  8862  8858 1
10803  8863  8859 1
10804  8864  8859 1
10805  8865  8859 1
10806  8869  8866 1
10807  8870  8866 1
10808  8871  8867 1
10809  8872  8868 1
10810  8873  8868 1
10811  8874  8868 1
10812  8878  8875 1
10813  8879  8875 1
10814  8880  8876 1
10815  8881  8877 1
10816  8882  8877 1
10817  8883  8877 1
10818  8887  8884 1
10819  8888  8884 1
10820  8889  8885 1
10821  8890  8886 1
10822  8891  8886 1
10823  8892  8886 1
10824  8896  8893 1
10825  8897  8893 1
10826  8898  8894 1
10827  8899  8895 1
10828  8900  8895 1
10829  8901  8895 1
10830  8905  8902 1
10831  8906  8902 1
10832  8907  8903 1
10833  8908  8904 1
10834  8909  8904 1
10835  8910  8904 1
10836  8914  8911 1
10837  8915  8911 1
10838  8916  8912 1
10839  8917  8913 1
10840  8918  8913 1
10841  8919  8913 1
10842  8923  8920 1
10843  8924  8920 1
10844  8925  8921 1
10845  8926  8922 1
10846  8927  8922 1
10847  8928  8922 1
10848  8932  8929 1
10849  8933  8929 1
10850  8934  8930 1
10851  8935  8931 1
10852  8936  8931 1
10853  8937  8931 1
10854  8941  8938 1
10855  8942  8938 1
10856  8943  8939 1
10857  8944  8940 1
10858  8945  8940 1
10859  8946  8940 1
10860  8950  8947 1
10861  8951  8947 1
10862  8952  8948 1
10863  8953  8949 1
10864  8954  8949 1
10865  8955  8949 1
10866  8959  8956 1
10867  8960  8956 1
10868  8961  8957 1
10869  8962  8958 1
10870  8963  8958 1
10871  8964  8958 1
10872  8968  8965 1
10873  8969  8965 1
10874  8970  8966 1
10875  8971  8967 1
10876  8972  8967 1
10877  8973  8967 1
10878  8977  8974 1
10879  8978  8974 1
10880  8979  8975 1
10881  8980  8976 1
10882  8981  8976 1
10883  8982  8976 1
10884  8986  8983 1
10885  8987  8983 1
10886  8988  8984 1
10887  8989  8985 1
10888  8990  8985 1
10889  8991  8985 1
10890  8995  8992 1
10891  8996  8992 1
10892  8997  8993 1
10893  8998  8994 1
10894  8999  8994 1
10895  9000  8994 1
10896  9004  9001 1
10897  9005  9001 1
10898  9006  9002 1
10899  9007  9003 1
10900  9008  9003 1
10901  9009  9003 1
10902  9013  9010 1
10903  9014  9010 1
10904  9015  9011 1
10905  9016  9012 1
10906  9017  9012 1
10907  9018  9012 1
10908  9022  9019 1
10909  9023  9019 1
10910  9024  9020 1
10911  9025  9021 1
10912  9026  9021 1
10913  9027  9021 1
10914  9031  9028 1
10915  9032  9028 1
10916  9033  9029 1
10917  9034  9030 1
10918  9035  9030 1
10919  9036  9030 1
10920  9040  9037 1
10921  9041  9037 1
10922  9042  9038 1
10923  9043  9039 1
10924  9044  9039 1
10925  9045  9039 1
10926  9049  9046 1
10927  9050  9046 1
10928  9051  9047 1
10929  9052  9048 1
10930  9053  9048 1
10931  9054  9048 1
10932  9058  9055 1
10933  9059  9055 1
10934  9060  9056 1
10935  9061  9057 1
10936  9062  9057 1
10937  9063  9057 1
10938  9067  9064 1
10939  9068  9064 1
10940  9069  9065 1
10941  9070  9066 1
10942  9071  9066 1
10943  9072  9066 1
10944  9076  9073 1
10945  9077  9073 1
10946  9078  9074 1
10947  9079  9075 1
10948  9080  9075 1
10949  9081  9075 1
10950  9085  9082 1
10951  9086  9082 1
10952  9087  9083 1
10953  9088  9084 1
10954  9089  9084 1
10955  9090  9084 1
10956  9094  9091 1
10957  9095  9091 1
10958  9096  9092 1
10959  9097  9093 1
10960  9098  9093 1
10961  9099  9093 1
10962  9103  9100 1
10963  9104  9100 1
10964  9105  9101 1
10965  9106  9102 1
10966  9107  9102 1
10967  9108  9102 1
10968  9112  9109 1
10969  9113  9109 1
10970  9114  9110 1
10971  9115  9111 1
10972  9116  9111 1
10973  9117  9111 1
10974  9121  9118 1
10975  9122  9118 1
10976  9123  9119 1
10977  9124  9120 1
10978  9125  9120 1
10979  9126  9120 1
10980  9130  9127 1
10981  9131  9127 1
10982  9132  9128 1
10983  9133  9129 1
10984  9134  9129 1
10985  9135  9129 1
10986  9139  9136 1
10987  9140  9136 1
10988  9141  9137 1
10989  9142  9138 1
10990  9143  9138 1
10991  9144  9138 1
10992  9148  9145 1
10993  9149  9145 1
10994  9150  9146 1
10995  9151  9147 1
10996  9152  9147 1
10997  9153  9147 1
10998  9157  9154 1
10999  9158  9154 1
11000  9159  9155 1
11001  9160  9156 1
11002  9161  9156 1
11003  9162  9156 1
11004  9166  9163 1
11005  9167  9163 1
11006  9168  9164 1
11007  9169  9165 1
11008  9170  9165 1
11009  9171  9165 1
11010  9175  9172 1
11011  9176  9172 1
11012  9177  9173 1
11013  9178  9174 1
11014  9179  9174 1
11015  9180  9174 1
11016  9184  9181 1
11017  9185  9181 1
11018  9186  9182 1
11019  9187  9183 1
11020  9188  9183 1
11021  9189  9183 1
11022  9193  9190 1
11023  9194  9190 1
11024  9195  9191 1
11025  9196  9192 1
11026  9197  9192 1
11027  9198  9192 1
11028  9202  9199 1
11029  9203  9199 1
11030  9204  9200 1
11031  9205  9201 1
11032  9206  9201 1
11033  9207  9201 1
11034  9211  9208 1
11035  9212  9208 1
11036  9213  9209 1
11037  9214  9210 1
11038  9215  9210 1
11039  9216  9210 1
11040  9220  9217 1
11041  9221  9217 1
11042  9222  9218 1
11043  9223  9219 1
11044  9224  9219 1
11045  9225  9219 1
11046  9229  9226 1
11047  9230  9226 1
11048  9231  9227 1
11049  9232  9228 1
11050  9233  9228 1
11051  9234  9228 1
11052  9238  9235 1
11053  9239  9235 1
11054  9240  9236 1
11055  9241  9237 1
11056  9242  9237 1
11057  9243  9237 1
11058  9247  9244 1
11059  9248  9244 1
11060  9249  9245 1
11061  9250  9246 1
11062  9251  9246 1
11063  9252  9246 1
11064  9256  9253 1
11065  9257  9253 1
11066  9258  9254 1
11067  9259  9255 1
11068  9260  9255 1
11069  9261  9255 1
11070  9265  9262 1
11071  9266  9262 1
11072  9267  9263 1
11073  9268  9264 1
11074  9269  9264 1
11075  9270  9264 1
11076  9274  9271 1
11077  9275  9271 1
11078  9276  9272 1
11079  9277  9273 1
11080  9278  9273 1
11081  9279  9273 1
11082  9283  9280 1
11083  9284  9280 1
11084  9285  9281 1
11085  9286  9282 1
11086  9287  9282 1
11087  9288  9282 1
11088  9292  9289 1
11089  9293  9289 1
11090  9294  9290 1
11091  9295  9291 1
11092  9296  9291 1
11093  9297  9291 1
11094  9301  9298 1
11095  9302  9298 1
11096  9303  9299 1
11097  9304  9300 1
11098  9305  9300 1
11099  9306  9300 1
11100  9310  9307 1
11101  9311  9307 1
11102  9312  9308 1
11103  9313  9309 1
11104  9314  9309 1
11105  9315  9309 1
11106  9319  9316 1
11107  9320  9316 1
11108  9321  9317 1
11109  9322  9318 1
11110  9323  9318 1
11111  9324  9318 1
11112  9328  9325 1
11113  9329  9325 1
11114  9330  9326 1
11115  9331  9327 1
11116  9332  9327 1
11117  9333  9327 1
11118  9337  9334 1
11119  9338  9334 1
11120  9339  9335 1
11121  9340  9336 1
11122  9341  9336 1
11123  9342  9336 1
11124  9346  9343 1
11125  9347  9343 1
11126  9348  9344 1
11127  9349  9345 1
11128  9350  9345 1
11129  9351  9345 1
11130  9355  9352 1
11131  9356  9352 1
11132  9357  9353 1
11133  9358  9354 1
11134  9359  9354 1
11135  9360  9354 1
11136  9364  9361 1
11137  9365  9361 1
11138  9366  9362 1
11139  9367  9363 1
11140  9368  9363 1
11141  9369  9363 1
11142  9373  9370 1
11143  9374  9370 1
11144  9375  9371 1
11145  9376  9372 1
11146  9377  9372 1
11147  9378  9372 1
11148  9382  9379 1
11149  9383  9379 1
11150  9384  9380 1
11151  9385  9381 1
11152  9386  9381 1
11153  9387  9381 1
11154  9391  9388 1
11155  9392  9388 1
11156  9393  9389 1
11157  9394  9390 1
11158  9395  9390 1
11159  9396  9390 1
11160  9400  9397 1
11161  9401  9397 1
11162  9402  9398 1
11163  9403  9399 1
11164  9404  9399 1
11165  9405  9399 1
11166  9409  9406 1
11167  9410  9406 1
11168  9411  9407 1
11169  9412  9408 1
11170  9413  9408 1
11171  9414  9408 1
11172  9418  9415 1
11173  9419  9415 1
11174  9420  9416 1
11175  9421  9417 1
11176  9422  9417 1
11177  9423  9417 1
11178  9427  9424 1
11179  9428  9424 1
11180  9429  9425 1
11181  9430  9426 1
11182  9431  9426 1
11183  9432  9426 1
11184  9436  9433 1
11185  9437  9433 1
11186  9438  9434 1
11187  9439  9435 1
11188  9440  9435 1
11189  9441  9435 1
11190  9445  9442 1
11191  9446  9442 1
11192  9447  9443 1
11193  9448  9444 1
11194  9449  9444 1
11195  9450  9444 1
11196  9454  9451 1
11197  9455  9451 1
11198  9456  9452 1
11199  9457  9453 1
11200  9458  9453 1
11201  9459  9453 1
11202  9463  9460 1
11203  9464  9460 1
11204  9465  9461 1
11205  9466  9462 1
11206  9467  9462 1
11207  9468  9462 1
11208  9472  9469 1
11209  9473  9469 1
11210  9474  9470 1
11211  9475  9471 1
11212  9476  9471 1
11213  9477  9471 1
11214  9481  9478 1
11215  9482  9478 1
11216  9483  9479 1
11217  9484  9480 1
11218  9485  9480 1
11219  9486  9480 1
11220  9490  9487 1
11221  9491  9487 1
11222  9492  9488 1
11223  9493  9489 1
11224  9494  9489 1
11225  9495  9489 1
11226  9499  9496 1
11227  9500  9496 1
11228  9501  9497 1
11229  9502  9498 1
11230  9503  9498 1
11231  9504  9498 1
11232  9508  9505 1
11233  9509  9505 1
11234  9510  9506 1
11235  9511  9507 1
11236  9512  9507 1
11237  9513  9507 1
11238  9517  9514 1
11239  9518  9514 1
11240  9519  9515 1
11241  9520  9516 1
11242  9521  9516 1
11243  9522  9516 1
11244  9526  9523 1
11245  9527  9523 1
11246  9528  9524 1
11247  9529  9525 1
11248  9530  9525 1
11249  9531  9525 1
11250  9535  9532 1
11251  9536  9532 1
11252  9537  9533 1
11253  9538  9534 1
11254  9539  9534 1
11255  9540  9534 1
11256  9544  9541 1
11257  9545  9541 1
11258  9546  9542 1
11259  9547  9543 1
11260  9548  9543 1
11261  9549  9543 1
11262  9553  9550 1
11263  9554  9550 1
11264  9555  9551 1
11265  9556  9552 1
11266  9557  9552 1
11267  9558  9552 1
11268  9562  9559 1
11269  9563  9559 1
11270  9564  9560 1
11271  9565  9561 1
11272  9566  9561 1
11273  9567  9561 1
11274  9571  9568 1
11275  9572  9568 1
11276  9573  9569 1
11277  9574  9570 1
11278  9575  9570 1
11279  9576  9570 1
11280  9580  9577 1
11281  9581  9577 1
11282  9582  9578 1
11283  9583  9579 1
11284  9584  9579 1
11285  9585  9579 1
11286  9589  9586 1
11287  9590  9586 1
11288  9591  9587 1
11289  9592  9588 1
11290  9593  9588 1
11291  9594  9588 1
11292  9598  9595 1
11293  9599  9595 1
11294  9600  9596 1
11295  9601  9597 1
11296  9602  9597 1
11297  9603  9597 1
11298  9607  9604 1
11299  9608  9604 1
11300  9609  9605 1
11301  9610  9606 1
11302  9611  9606 1
11303  9612  9606 1
11304  9616  9613 1
11305  9617  9613 1
11306  9618  9614 1
11307  9619  9615 1
11308  9620  9615 1
11309  9621  9615 1
11310  9625  9622 1
11311  9626  9622 1
11312  9627  9623 1
11313  9628  9624 1
11314  9629  9624 1
11315  9630  9624 1
11316  9634  9631 1
11317  9635  9631 1
11318  9636  9632 1
11319  9637  9633 1
11320  9638  9633 1
11321  9639  9633 1
11322  9643  9640 1
11323  9644  9640 1
11324  9645  9641 1
11325  9646  9642 1
11326  9647  9642 1
11327  9648  9642 1
11328  9652  9649 1
11329  9653  9649 1
11330  9654  9650 1
11331  9655  9651 1
11332  9656  9651 1
11333  9657  9651 1
11334  9661  9658 1
11335  9662  9658 1
11336  9663  9659 1
11337  9664  9660 1
11338  9665  9660 1
11339  9666  9660 1
11340  9670  9667 1
11341  9671  9667 1
11342  9672  9668 1
11343  9673  9669 1
11344  9674  9669 1
11345  9675  9669 1
11346  9679  9676 1
11347  9680  9676 1
11348  9681  9677 1
11349  9682  9678 1
11350  9683  9678 1
11351  9684  9678 1
11352  9688  9685 1
11353  9689  9685 1
11354  9690  9686 1
11355  9691  9687 1
11356  9692  9687 1
11357  9693  9687 1
11358  9697  9694 1
11359  9698  9694 1
11360  9699  9695 1
11361  9700  9696 1
11362  9701  9696 1
11363  9702  9696 1
11364  9706  9703 1
11365  9707  9703 1
11366  9708  9704 1
11367  9709  9705 1
11368  9710  9705 1
11369  9711  9705 1
11370  9715  9712 1
11371  9716  9712 1
11372  9717  9713 1
11373  9718  9714 1
11374  9719  9714 1
11375  9720  9714 1
11376  9724  9721 1
11377  9725  9721 1
11378  9726  9722 1
11379  9727  9723 1
11380  9728  9723 1
11381  9729  9723 1
11382  9733  9730 1
11383  9734  9730 1
11384  9735  9731 1
11385  9736  9732 1
11386  9737  9732 1
11387  9738  9732 1
11388  9742  9739 1
11389  9743  9739 1
11390  9744  9740 1
11391  9745  9741 1
11392  9746  9741 1
11393  9747  9741 1
11394  9751  9748 1
11395  9752  9748 1
11396  9753  9749 1
11397  9754  9750 1
11398  9755  9750 1
11399  9756  9750 1
11400  9760  9757 1
11401  9761  9757 1
11402  9762  9758 1
11403  9763  9759 1
11404  9764  9759 1
11405  9765  9759 1
11406  9769  9766 1
11407  9770  9766 1
11408  9771  9767 1
11409  9772  9768 1
11410  9773  9768 1
11411  9774  9768 1
11412  9778  9775 1
11413  9779  9775 1
11414  9780  9776 1
11415  9781  9777 1
11416  9782  9777 1
11417  9783  9777 1
11418  9787  9784 1
11419  9788  9784 1
11420  9789  9785 1
11421  9790  9786 1
11422  9791  9786 1
11423  9792  9786 1
11424  9796  9793 1
11425  9797  9793 1
11426  9798  9794 1
11427  9799  9795 1
11428  9800  9795 1
11429  9801  9795 1
11430  9805  9802 1
11431  9806  9802 1
11432  9807  9803 1
11433  9808  9804 1
11434  9809  9804 1
11435  9810  9804 1
11436  9814  9811 1
11437  9815  9811 1
11438  9816  9812 1
11439  9817  9813 1
11440  9818  9813 1
11441  9819  9813 1
11442  9823  9820 1
11443  9824  9820 1
11444  9825  9821 1
11445  9826  9822 1
11446  9827  9822 1
11447  9828  9822 1
11448  9832  9829 1
11449  9833  9829 1
11450  9834  9830 1
11451  9835  9831 1
11452  9836  9831 1
11453  9837  9831 1
11454  9841  9838 1
11455  9842  9838 1
11456  9843  9839 1
11457  9844  9840 1
11458  9845  9840 1
11459  9846  9840 1
11460  9850  9847 1
11461  9851  9847 1
11462  9852  9848 1
11463  9853  9849 1
11464  9854  9849 1
11465  9855  9849 1
11466  9859  9856 1
11467  9860  9856 1
11468  9861  9857 1
11469  9862  9858 1
11470  9863  9858 1
11471  9864  9858 1
11472  9868  9865 1
11473  9869  9865 1
11474  9870  9866 1
11475  9871  9867 1
11476  9872  9867 1
11477  9873  9867 1
11478  9877  9874 1
11479  9878  9874 1
11480  9879  9875 1
11481  9880  9876 1
11482  9881  9876 1
11483  9882  9876 1
11484  9886  9883 1
11485  9887  9883 1
11486  9888  9884 1
11487  9889  9885 1
11488  9890  9885 1
11489  9891  9885 1
11490  9895  9892 1
11491  9896  9892 1
11492  9897  9893 1
11493  9898  9894 1
11494  9899  9894 1
11495  9900  9894 1
11496  9904  9901 1
11497  9905  9901 1
11498  9906  9902 1
11499  9907  9903 1
11500  9908  9903 1
11501  9909  9903 1
11502  9913  9910 1
11503  9914  9910 1
11504  9915  9911 1
11505  9916  9912 1
11506  9917  9912 1
11507  9918  9912 1
11508  9922  9919 1
11509  9923  9919 1
11510  9924  9920 1
11511  9925  9921 1
11512  9926  9921 1
11513  9927  9921 1
11514  9931  9928 1
11515  9932  9928 1
11516  9933  9929 1
11517  9934  9930 1
11518  9935  9930 1
11519  9936  9930 1
11520  9940  9937 1
11521  9941  9937 1
11522  9942  9938 1
11523  9943  9939 1
11524  9944  9939 1
11525  9945  9939 1
11526  9949  9946 1
11527  9950  9946 1
11528  9951  9947 1
11529  9952  9948 1
11530  9953  9948 1
11531  9954  9948 1
11532  9958  9955 1
11533  9959  9955 1
11534  9960  9956 1
11535  9961  9957 1
11536  9962  9957 1
11537  9963  9957 1
11538  9967  9964 1
11539  9968  9964 1
11540  9969  9965 1
11541  9970  9966 1
11542  9971  9966 1
11543  9972  9966 1
11544  9976  9973 1
11545  9977  9973 1
11546  9978  9974 1
11547  9979  9975 1
11548  9980  9975 1
11549  9981  9975 1
11550  9985  9982 1
11551  9986  9982 1
11552  9987  9983 1
11553  9988  9984 1
11554  9989  9984 1
11555  9990  9984 1
11556  9994  9991 1
11557  9995  9991 1
11558  9996  9992 1
11559  9997  9993 1
11560  9998  9993 1
11561  9999  9993 1
11562 10003 10000 1
11563 10004 10000 1
11564 10005 10001 1
11565 10006 10002 1
11566 10007 10002 1
11567 10008 10002 1
11568 10012 10009 1
11569 10013 10009 1
11570 10014 10010 1
11571 10015 10011 1
11572 10016 10011 1
11573 10017 10011 1
11574 10021 10018 1
11575 10022 10018 1
11576 10023 10019 1
11577 10024 10020 1
11578 10025 10020 1
11579 10026 10020 1
11580 10030 10027 1
11581 10031 10027 1
11582 10032 10028 1
11583 10033 10029 1
11584 10034 10029 1
11585 10035 10029 1
11586 10039 10036 1
11587 10040 10036 1
11588 10041 10037 1
11589 10042 10038 1
11590 10043 10038 1
11591 10044 10038 1
11592 10048 10045 1
11593 10049 10045 1
11594 10050 10046 1
11595 10051 10047 1
11596 10052 10047 1
11597 10053 10047 1
11598 10057 10054 1
11599 10058 10054 1
11600 10059 10055 1
11601 10060 10056 1
11602 10061 10056 1
11603 10062 10056 1
11604 10066 10063 1
11605 10067 10063 1
11606 10068 10064 1
11607 10069 10065 1
11608 10070 10065 1
11609 10071 10065 1
11610 10075 10072 1
11611 10076 10072 1
11612 10077 10073 1
11613 10078 10074 1
11614 10079 10074 1
11615 10080 10074 1
11616 10084 10081 1
11617 10085 10081 1
11618 10086 10082 1
11619 10087 10083 1
11620 10088 10083 1
11621 10089 10083 1
11622 10093 10090 1
11623 10094 10090 1
11624 10095 10091 1
11625 10096 10092 1
11626 10097 10092 1
11627 10098 10092 1
11628 10102 10099 1
11629 10103 10099 1
11630 10104 10100 1
11631 10105 10101 1
11632 10106 10101 1
11633 10107 10101 1
11634 10111 10108 1
11635 10112 10108 1
11636 10113 10109 1
11637 10114 10110 1
11638 10115 10110 1
11639 10116 10110 1
11640 10120 10117 1
11641 10121 10117 1
11642 10122 10118 1
11643 10123 10119 1
11644 10124 10119 1
11645 10125 10119 1
11646 10129 10126 1
11647 10130 10126 1
11648 10131 10127 1
11649 10132 10128 1
11650 10133 10128 1
11651 10134 10128 1
11652 10138 10135 1
11653 10139 10135 1
11654 10140 10136 1
11655 10141 10137 1
11656 10142 10137 1
11657 10143 10137 1
11658 10147 10144 1
11659 10148 10144 1
11660 10149 10145 1
11661 10150 10146 1
11662 10151 10146 1
11663 10152 10146 1
11664 10156 10153 1
11665 10157 10153 1
11666 10158 10154 1
11667 10159 10155 1
11668 10160 10155 1
11669 10161 10155 1
11670 10165 10162 1
11671 10166 10162 1
11672 10167 10163 1
11673 10168 10164 1
11674 10169 10164 1
11675 10170 10164 1
11676 10174 10171 1
11677 10175 10171 1
11678 10176 10172 1
11679 10177 10173 1
11680 10178 10173 1
11681 10179 10173 1
11682 10183 10180 1
11683 10184 10180 1
11684 10185 10181 1
11685 10186 10182 1
11686 10187 10182 1
11687 10188 10182 1
11688 10192 10189 1
11689 10193 10189 1
11690 10194 10190 1
11691 10195 10191 1
11692 10196 10191 1
11693 10197 10191 1
11694 10201 10198 1
11695 10202 10198 1
11696 10203 10199 1
11697 10204 10200 1
11698 10205 10200 1
11699 10206 10200 1
11700 10210 10207 1
11701 10211 10207 1
11702 10212 10208 1
11703 10213 10209 1
11704 10214 10209 1
11705 10215 10209 1
11706 10219 10216 1
11707 10220 10216 1
11708 10221 10217 1
11709 10222 10218 1
11710 10223 10218 1
11711 10224 10218 1
11712 10228 10225 1
11713 10229 10225 1
11714 10230 10226 1
11715 10231 10227 1
11716 10232 10227 1
11717 10233 10227 1
11718 10237 10234 1
11719 10238 10234 1
11720 10239 10235 1
11721 10240 10236 1
11722 10241 10236 1
11723 10242 10236 1
11724 10246 10243 1
11725 10247 10243 1
11726 10248 10244 1
11727 10249 10245 1
11728 10250 10245 1
11729 10251 10245 1
11730 10255 10252 1
11731 10256 10252 1
11732 10257 10253 1
11733 10258 10254 1
11734 10259 10254 1
11735 10260 10254 1
11736 10264 10261 1
11737 10265 10261 1
11738 10266 10262 1
11739 10267 10263 1
11740 10268 10263 1
11741 10269 10263 1
11742 10273 10270 1
11743 10274 10270 1
11744 10275 10271 1
11745 10276 10272 1
11746 10277 10272 1
11747 10278 10272 1
11748 10282 10279 1
11749 10283 10279 1
11750 10284 10280 1
11751 10285 10281 1
11752 10286 10281 1
11753 10287 10281 1
11754 10291 10288 1
11755 10292 10288 1
11756 10293 10289 1
11757 10294 10290 1
11758 10295 10290 1
11759 10296 10290 1
11760 10300 10297 1
11761 10301 10297 1
11762 10302 10298 1
11763 10303 10299 1
11764 10304 10299 1
11765 10305 10299 1
11766 10309 10306 1
11767 10310 10306 1
11768 10311 10307 1
11769 10312 10308 1
11770 10313 10308 1
11771 10314 10308 1
11772 10318 10315 1
11773 10319 10315 1
11774 10320 10316 1
11775 10321 10317 1
11776 10322 10317 1
11777 10323 10317 1
11778 10327 10324 1
11779 10328 10324 1
11780 10329 10325 1
11781 10330 10326 1
11782 10331 10326 1
11783 10332 10326 1
11784 10336 10333 1
11785 10337 10333 1
11786 10338 10334 1
11787 10339 10335 1
11788 10340 10335 1
11789 10341 10335 1
11790 10345 10342 1
11791 10346 10342 1
11792 10347 10343 1
11793 10348 10344 1
11794 10349 10344 1
11795 10350 10344 1
11796 10354 10351 1
11797 10355 10351 1
11798 10356 10352 1
11799 10357 10353 1
11800 10358 10353 1
11801 10359 10353 1
11802 10363 10360 1
11803 10364 10360 1
11804 10365 10361 1
11805 10366 10362 1
11806 10367 10362 1
11807 10368 10362 1
11808 10372 10369 1
11809 10373 10369 1
11810 10374 10370 1
11811 10375 10371 1
11812 10376 10371 1
11813 10377 10371 1
11814 10381 10378 1
11815 10382 10378 1
11816 10383 10379 1
11817 10384 10380 1
11818 10385 10380 1
11819 10386 10380 1
11820 10390 10387 1
11821 10391 10387 1
11822 10392 10388 1
11823 10393 10389 1
11824 10394 10389 1
11825 10395 10389 1
11826 10399 10396 1
11827 10400 10396 1
11828 10401 10397 1
11829 10402 10398 1
11830 10403 10398 1
11831 10404 10398 1
11832 10408 10405 1
11833 10409 10405 1
11834 10410 10406 1
11835 10411 10407 1
11836 10412 10407 1
11837 10413 10407 1
11838 10417 10414 1
11839 10418 10414 1
11840 10419 10415 1
11841 10420 10416 1
11842 10421 10416 1
11843 10422 10416 1
11844 10426 10423 1
11845 10427 10423 1
11846 10428 10424 1
11847 10429 10425 1
11848 10430 10425 1
11849 10431 10425 1
11850 10435 10432 1
11851 10436 10432 1
11852 10437 10433 1
11853 10438 10434 1
11854 10439 10434 1
11855 10440 10434 1
11856 10444 10441 1
11857 10445 10441 1
11858 10446 10442 1
11859 10447 10443 1
11860 10448 10443 1
11861 10449 10443 1
11862 10453 10450 1
11863 10454 10450 1
11864 10455 10451 1
11865 10456 10452 1
11866 10457 10452 1
11867 10458 10452 1
11868 10462 10459 1
11869 10463 10459 1
11870 10464 10460 1
11871 10465 10461 1
11872 10466 10461 1
11873 10467 10461 1
11874 10471 10468 1
11875 10472 10468 1
11876 10473 10469 1
11877 10474 10470 1
11878 10475 10470 1
11879 10476 10470 1
11880 10480 10477 1
11881 10481 10477 1
11882 10482 10478 1
11883 10483 10479 1
11884 10484 10479 1
11885 10485 10479 1
11886 10489 10486 1
11887 10490 10486 1
11888 10491 10487 1
11889 10492 10488 1
11890 10493 10488 1
11891 10494 10488 1
11892 10498 10495 1
11893 10499 10495 1
11894 10500 10496 1
11895 10501 10497 1
11896 10502 10497 1
11897 10503 10497 1
11898 10507 10504 1
11899 10508 10504 1
11900 10509 10505 1
11901 10510 10506 1
11902 10511 10506 1
11903 10512 10506 1
11904 10516 10513 1
11905 10517 10513 1
11906 10518 10514 1
11907 10519 10515 1
11908 10520 10515 1
11909 10521 10515 1
11910 10525 10522 1
11911 10526 10522 1
11912 10527 10523 1
11913 10528 10524 1
11914 10529 10524 1
11915 10530 10524 1
11916 10534 10531 1
11917 10535 10531 1
11918 10536 10532 1
11919 10537 10533 1
11920 10538 10533 1
11921 10539 10533 1
11922 10543 10540 1
11923 10544 10540 1
11924 10545 10541 1
11925 10546 10542 1
11926 10547 10542 1
11927 10548 10542 1
11928 10552 10549 1
11929 10553 10549 1
11930 10554 10550 1
11931 10555 10551 1
11932 10556 10551 1
11933 10557 10551 1
11934 10561 10558 1
11935 10562 10558 1
11936 10563 10559 1
11937 10564 10560 1
11938 10565 10560 1
11939 10566 10560 1
11940 10570 10567 1
11941 10571 10567 1
11942 10572 10568 1
11943 10573 10569 1
11944 10574 10569 1
11945 10575 10569 1
11946 10579 10576 1
11947 10580 10576 1
11948 10581 10577 1
11949 10582 10578 1
11950 10583 10578 1
11951 10584 10578 1
11952 10588 10585 1
11953 10589 10585 1
11954 10590 10586 1
11955 10591 10587 1
11956 10592 10587 1
11957 10593 10587 1
11958 10597 10594 1
11959 10598 10594 1
11960 10599 10595 1
11961 10600 10596 1
11962 10601 10596 1
11963 10602 10596 1
11964 10606 10603 1
11965 10607 10603 1
11966 10608 10604 1
11967 10609 10605 1
11968 10610 10605 1
11969 10611 10605 1
11970 10615 10612 1
11971 10616 10612 1
11972 10617 10613 1
11973 10618 10614 1
11974 10619 10614 1
11975 10620 10614 1
11976 10624 10621 1
11977 10625 10621 1
11978 10626 10622 1
11979 10627 10623 1
11980 10628 10623 1
11981 10629 10623 1
11982 10633 10630 1
11983 10634 10630 1
11984 10635 10631 1
11985 10636 10632 1
11986 10637 10632 1
11987 10638 10632 1
11988 10642 10639 1
11989 10643 10639 1
11990 10644 10640 1
11991 10645 10641 1
11992 10646 10641 1
11993 10647 10641 1
11994 10651 10648 1
11995 10652 10648 1
11996 10653 10649 1
11997 10654 10650 1
11998 10655 10650 1
11999 10656 10650 1
12000 10660 10657 1
12001 10661 10657 1
12002 10662 10658 1
12003 10663 10659 1
12004 10664 10659 1
12005 10665 10659 1
12006 10669 10666 1
12007 10670 10666 1
12008 10671 10667 1
12009 10672 10668 1
12010 10673 10668 1
12011 10674 10668 1
12012 10678 10675 1
12013 10679 10675 1
12014 10680 10676 1
12015 10681 10677 1
12016 10682 10677 1
12017 10683 10677 1
12018 10687 10684 1
12019 10688 10684 1
12020 10689 10685 1
12021 10690 10686 1
12022 10691 10686 1
12023 10692 10686 1
12024 10696 10693 1
12025 10697 10693 1
12026 10698 10694 1
12027 10699 10695 1
12028 10700 10695 1
12029 10701 10695 1
12030 10705 10702 1
12031 10706 10702 1
12032 10707 10703 1
12033 10708 10704 1
12034 10709 10704 1
12035 10710 10704 1
12036 10714 10711 1
12037 10715 10711 1
12038 10716 10712 1
12039 10717 10713 1
12040 10718 10713 1
12041 10719 10713 1
12042 10723 10720 1
12043 10724 10720 1
12044 10725 10721 1
12045 10726 10722 1
12046 10727 10722 1
12047 10728 10722 1
12048 10732 10729 1
12049 10733 10729 1
12050 10734 10730 1
12051 10735 10731 1
12052 10736 10731 1
12053 10737 10731 1
12054 10741 10738 1
12055 10742 10738 1
12056 10743 10739 1
12057 10744 10740 1
12058 10745 10740 1
12059 10746 10740 1
12060 10750 10747 1
12061 10751 10747 1
12062 10752 10748 1
12063 10753 10749 1
12064 10754 10749 1
12065 10755 10749 1
12066 10759 10756 1
12067 10760 10756 1
12068 10761 10757 1
12069 10762 10758 1
12070 10763 10758 1
12071 10764 10758 1
12072 10768 10765 1
12073 10769 10765 1
12074 10770 10766 1
12075 10771 10767 1
12076 10772 10767 1
12077 10773 10767 1
12078 10777 10774 1
12079 10778 10774 1
12080 10779 10775 1
12081 10780 10776 1
12082 10781 10776 1
12083 10782 10776 1
12084 10786 10783 1
12085 10787 10783 1
12086 10788 10784 1
12087 10789 10785 1
12088 10790 10785 1
12089 10791 10785 1
12090 10795 10792 1
12091 10796 10792 1
12092 10797 10793 1
12093 10798 10794 1
12094 10799 10794 1
12095 10800 10794 1
12096 10804 10801 1
12097 10805 10801 1
12098 10806 10802 1
12099 10807 10803 1
12100 10808 10803 1
12101 10809 10803 1
12102 10813 10810 1
12103 10814 10810 1
12104 10815 10811 1
12105 10816 10812 1
12106 10817 10812 1
12107 10818 10812 1
12108 10822 10819 1
12109 10823 10819 1
12110 10824 10820 1
12111 10825 10821 1
12112 10826 10821 1
12113 10827 10821 1
12114 10831 10828 1
12115 10832 10828 1
12116 10833 10829 1
12117 10834 10830 1
12118 10835 10830 1
12119 10836 10830 1
12120 10840 10837 1
12121 10841 10837 1
12122 10842 10838 1
12123 10843 10839 1
12124 10844 10839 1
12125 10845 10839 1
12126 10849 10846 1
12127 10850 10846 1
12128 10851 10847 1
12129 10852 10848 1
12130 10853 10848 1
12131 10854 10848 1
12132 10858 10855 1
12133 10859 10855 1
12134 10860 10856 1
12135 10861 10857 1
12136 10862 10857 1
12137 10863 10857 1
12138 10867 10864 1
12139 10868 10864 1
12140 10869 10865 1
12141 10870 10866 1
12142 10871 10866 1
12143 10872 10866 1
12144 10876 10873 1
12145 10877 10873 1
12146 10878 10874 1
12147 10879 10875 1
12148 10880 10875 1
12149 10881 10875 1
12150 10885 10882 1
12151 10886 10882 1
12152 10887 10883 1
12153 10888 10884 1
12154 10889 10884 1
12155 10890 10884 1
12156 10894 10891 1
12157 10895 10891 1
12158 10896 10892 1
12159 10897 10893 1
12160 10898 10893 1
12161 10899 10893 1
12162 10903 10900 1
12163 10904 10900 1
12164 10905 10901 1
12165 10906 10902 1
12166 10907 10902 1
12167 10908 10902 1
12168 10912 10909 1
12169 10913 10909 1
12170 10914 10910 1
12171 10915 10911 1
12172 10916 10911 1
12173 10917 10911 1
12174 10921 10918 1
12175 10922 10918 1
12176 10923 10919 1
12177 10924 10920 1
12178 10925 10920 1
12179 10926 10920 1
12180 10930 10927 1
12181 10931 10927 1
12182 10932 10928 1
12183 10933 10929 1
12184 10934 10929 1
12185 10935 10929 1
12186 10939 10936 1
12187 10940 10936 1
12188 10941 10937 1
12189 10942 10938 1
12190 10943 10938 1
12191 10944 10938 1
12192 10948 10945 1
12193 10949 10945 1
12194 10950 10946 1
12195 10951 10947 1
12196 10952 10947 1
12197 10953 10947 1
12198 10957 10954 1
12199 10958 10954 1
12200 10959 10955 1
12201 10960 10956 1
12202 10961 10956 1
12203 10962 10956 1
12204 10966 10963 1
12205 10967 10963 1
12206 10968 10964 1
12207 10969 10965 1
12208 10970 10965 1
12209 10971 10965 1
12210 10975 10972 1
12211 10976 10972 1
12212 10977 10973 1
12213 10978 10974 1
12214 10979 10974 1
12215 10980 10974 1
12216 10984 10981 1
12217 10985 10981 1
12218 10986 10982 1
12219 10987 10983 1
12220 10988 10983 1
12221 10989 10983 1
12222 10993 10990 1
12223 10994 10990 1
12224 10995 10991 1
12225 10996 10992 1
12226 10997 10992 1
12227 10998 10992 1
12228 11002 10999 1
12229 11003 10999 1
12230 11004 11000 1
12231 11005 11001 1
12232 11006 11001 1
12233 11007 11001 1
12234 11011 11008 1
12235 11012 11008 1
12236 11013 11009 1
12237 11014 11010 1
12238 11015 11010 1
12239 11016 11010 1
12240 11020 11017 1
12241 11021 11017 1
12242 11022 11018 1
12243 11023 11019 1
12244 11024 11019 1
12245 11025 11019 1
12246 11029 11026 1
12247 11030 11026 1
12248 11031 11027 1
12249 11032 11028 1
12250 11033 11028 1
12251 11034 11028 1
12252 11038 11035 1
12253 11039 11035 1
12254 11040 11036 1
12255 11041 11037 1
12256 11042 11037 1
12257 11043 11037 1
12258 11047 11044 1
12259 11048 11044 1
12260 11049 11045 1
12261 11050 11046 1
12262 11051 11046 1
12263 11052 11046 1
12264 11056 11053 1
12265 11057 11053 1
12266 11058 11054 1
12267 11059 11055 1
12268 11060 11055 1
12269 11061 11055 1
12270 11065 11062 1
12271 11066 11062 1
12272 11067 11063 1
12273 11068 11064 1
12274 11069 11064 1
12275 11070 11064 1
12276 11074 11071 1
12277 11075 11071 1
12278 11076 11072 1
12279 11077 11073 1
12280 11078 11073 1
12281 11079 11073 1
12282 11083 11080 1
12283 11084 11080 1
12284 11085 11081 1
12285 11086 11082 1
12286 11087 11082 1
12287 11088 11082 1
12288 11092 11089 1
12289 11093 11089 1
12290 11094 11090 1
12291 11095 11091 1
12292 11096 11091 1
12293 11097 11091 1
12294 11101 11098 1
12295 11102 11098 1
12296 11103 11099 1
12297 11104 11100 1
12298 11105 11100 1
12299 11106 11100 1
12300 11110 11107 1
12301 11111 11107 1
12302 11112 11108 1
12303 11113 11109 1
12304 11114 11109 1
12305 11115 11109 1
12306 11119 11116 1
12307 11120 11116 1
12308 11121 11117 1
12309 11122 11118 1
12310 11123 11118 1
12311 11124 11118 1
12312 11128 11125 1
12313 11129 11125 1
12314 11130 11126 1
12315 11131 11127 1
12316 11132 11127 1
12317 11133 11127 1
12318 11137 11134 1
12319 11138 11134 1
12320 11139 11135 1
12321 11140 11136 1
12322 11141 11136 1
12323 11142 11136 1
12324 11146 11143 1
12325 11147 11143 1
12326 11148 11144 1
12327 11149 11145 1
12328 11150 11145 1
12329 11151 11145 1
12330 11155 11152 1
12331 11156 11152 1
12332 11157 11153 1
12333 11158 11154 1
12334 11159 11154 1
12335 11160 11154 1
12336 11164 11161 1
12337 11165 11161 1
12338 11166 11162 1
12339 11167 11163 1
12340 11168 11163 1
12341 11169 11163 1
12342 11173 11170 1
12343 11174 11170 1
12344 11175 11171 1
12345 11176 11172 1
12346 11177 11172 1
12347 11178 11172 1
12348 11182 11179 1
12349 11183 11179 1
12350 11184 11180 1
12351 11185 11181 1
12352 11186 11181 1
12353 11187 11181 1
12354 11191 11188 1
12355 11192 11188 1
12356 11193 11189 1
12357 11194 11190 1
12358 11195 11190 1
12359 11196 11190 1
12360 11200 11197 1
12361 11201 11197 1
12362 11202 11198 1
12363 11203 11199 1
12364 11204 11199 1
12365 11205 11199 1
12366 11209 11206 1
12367 11210 11206 1
12368 11211 11207 1
12369 11212 11208 1
12370 11213 11208 1
12371 11214 11208 1
12372 11218 11215 1
12373 11219 11215 1
12374 11220 11216 1
12375 11221 11217 1
12376 11222 11217 1
12377 11223 11217 1
12378 11227 11224 1
12379 11228 11224 1
12380 11229 11225 1
12381 11230 11226 1
12382 11231 11226 1
12383 11232 11226 1
12384 11236 11233 1
12385 11237 11233 1
12386 11238 11234 1
12387 11239 11235 1
12388 11240 11235 1
12389 11241 11235 1
12390 11245 11242 1
12391 11246 11242 1
12392 11247 11243 1
12393 11248 11244 1
12394 11249 11244 1
12395 11250 11244 1
12396 11254 11251 1
12397 11255 11251 1
12398 11256 11252 1
12399 11257 11253 1
12400 11258 11253 1
12401 11259 11253 1
12402 11263 11260 1
12403 11264 11260 1
12404 11265 11261 1
12405 11266 11262 1
12406 11267 11262 1
12407 11268 11262 1
12408 11272 11269 1
12409 11273 11269 1
12410 11274 11270 1
12411 11275 11271 1
12412 11276 11271 1
12413 11277 11271 1
12414 11281 11278 1
12415 11282 11278 1
12416 11283 11279 1
12417 11284 11280 1
12418 11285 11280 1
12419 11286 11280 1
12420 11290 11287 1
12421 11291 11287 1
12422 11292 11288 1
12423 11293 11289 1
12424 11294 11289 1
12425 11295 11289 1
12426 11299 11296 1
12427 11300 11296 1
12428 11301 11297 1
12429 11302 11298 1
12430 11303 11298 1
12431 11304 11298 1
12432 11308 11305 1
12433 11309 11305 1
12434 11310 11306 1
12435 11311 11307 1
12436 11312 11307 1
12437 11313 11307 1
12438 11317 11314 1
12439 11318 11314 1
12440 11319 11315 1
12441 11320 11316 1
12442 11321 11316 1
12443 11322 11316 1
12444 11326 11323 1
12445 11327 11323 1
12446 11328 11324 1
12447 11329 11325 1
12448 11330 11325 1
12449 11331 11325 1
12450 11335 11332 1
12451 11336 11332 1
12452 11337 11333 1
12453 11338 11334 1
12454 11339 11334 1
12455 11340 11334 1
12456 11344 11341 1
12457 11345 11341 1
12458 11346 11342 1
12459 11347 11343 1
12460 11348 11343 1
12461 11349 11343 1
12462 11353 11350 1
12463 11354 11350 1
12464 11355 11351 1
12465 11356 11352 1
12466 11357 11352 1
12467 11358 11352 1
12468 11362 11359 1
12469 11363 11359 1
12470 11364 11360 1
12471 11365 11361 1
12472 11366 11361 1
12473 11367 11361 1
12474 11371 11368 1
12475 11372 11368 1
12476 11373 11369 1
12477 11374 11370 1
12478 11375 11370 1
12479 11376 11370 1
12480 11380 11377 1
12481 11381 11377 1
12482 11382 11378 1
12483 11383 11379 1
12484 11384 11379 1
12485 11385 11379 1
12486 11389 11386 1
12487 11390 11386 1
12488 11391 11387 1
12489 11392 11388 1
12490 11393 11388 1
12491 11394 11388 1
12492 11398 11395 1
12493 11399 11395 1
12494 11400 11396 1
12495 11401 11397 1
12496 11402 11397 1
12497 11403 11397 1
12498 11407 11404 1
12499 11408 11404 1
12500 11409 11405 1
12501 11410 11406 1
12502 11411 11406 1
12503 11412 11406 1
12504 11416 11413 1
12505 11417 11413 1
12506 11418 11414 1
12507 11419 11415 1
12508 11420 11415 1
12509 11421 11415 1
12510 11425 11422 1
12511 11426 11422 1
12512 11427 11423 1
12513 11428 11424 1
12514 11429 11424 1
12515 11430 11424 1
12516 11434 11431 1
12517 11435 11431 1
12518 11436 11432 1
12519 11437 11433 1
12520 11438 11433 1
12521 11439 11433 1
12522 11443 11440 1
12523 11444 11440 1
12524 11445 11441 1
12525 11446 11442 1
12526 11447 11442 1
12527 11448 11442 1
12528 11452 11449 1
12529 11453 11449 1
12530 11454 11450 1
12531 11455 11451 1
12532 11456 11451 1
12533 11457 11451 1
12534 11461 11458 1
12535 11462 11458 1
12536 11463 11459 1
12537 11464 11460 1
12538 11465 11460 1
12539 11466 11460 1
12540 11470 11467 1
12541 11471 11467 1
12542 11472 11468 1
12543 11473 11469 1
12544 11474 11469 1
12545 11475 11469 1
12546 11479 11476 1
12547 11480 11476 1
12548 11481 11477 1
12549 11482 11478 1
12550 11483 11478 1
12551 11484 11478 1
12552 11488 11485 1
12553 11489 11485 1
12554 11490 11486 1
12555 11491 11487 1
12556 11492 11487 1
12557 11493 11487 1
12558 11497 11494 1
12559 11498 11494 1
12560 11499 11495 1
12561 11500 11496 1
12562 11501 11496 1
12563 11502 11496 1
12564 11506 11503 1
12565 11507 11503 1
12566 11508 11504 1
12567 11509 11505 1
12568 11510 11505 1
12569 11511 11505 1
12570 11515 11512 1
12571 11516 11512 1
12572 11517 11513 1
12573 11518 11514 1
12574 11519 11514 1
12575 11520 11514 1
12576 11524 11521 1
12577 11525 11521 1
12578 11526 11522 1
12579 11527 11523 1
12580 11528 11523 1
12581 11529 11523 1
12582 11533 11530 1
12583 11534 11530 1
12584 11535 11531 1
12585 11536 11532 1
12586 11537 11532 1
12587 11538 11532 1
12588 11542 11539 1
12589 11543 11539 1
12590 11544 11540 1
12591 11545 11541 1
12592 11546 11541 1
12593 11547 11541 1
12594 11551 11548 1
12595 11552 11548 1
12596 11553 11549 1
12597 11554 11550 1
12598 11555 11550 1
12599 11556 11550 1
12600 11560 11557 1
12601 11561 11557 1
12602 11562 11558 1
12603 11563 11559 1
12604 11564 11559 1
12605 11565 11559 1
12606 11569 11566 1
12607 11570 11566 1
12608 11571 11567 1
12609 11572 11568 1
12610 11573 11568 1
12611 11574 11568 1
12612 11578 11575 1
12613 11579 11575 1
12614 11580 11576 1
12615 11581 11577 1
12616 11582 11577 1
12617 11583 11577 1
12618 11587 11584 1
12619 11588 11584 1
12620 11589 11585 1
12621 11590 11586 1
12622 11591 11586 1
12623 11592 11586 1
12624 11596 11593 1
12625 11597 11593 1
12626 11598 11594 1
12627 11599 11595 1
12628 11600 11595 1
12629 11601 11595 1
12630 11605 11602 1
12631 11606 11602 1
12632 11607 11603 1
12633 11608 11604 1
12634 11609 11604 1
12635 11610 11604 1
12636 11614 11611 1
12637 11615 11611 1
12638 11616 11612 1
12639 11617 11613 1
12640 11618 11613 1
12641 11619 11613 1
12642 11623 11620 1
12643 11624 11620 1
12644 11625 11621 1
12645 11626 11622 1
12646 11627 11622 1
12647 11628 11622 1
12648 11632 11629 1
12649 11633 11629 1
12650 11634 11630 1
12651 11635 11631 1
12652 11636 11631 1
12653 11637 11631 1
12654 11641 11638 1
12655 11642 11638 1
12656 11643 11639 1
12657 11644 11640 1
12658 11645 11640 1
12659 11646 11640 1
12660 11650 11647 1
12661 11651 11647 1
12662 11652 11648 1
12663 11653 11649 1
12664 11654 11649 1
12665 11655 11649 1
12666 11659 11656 1
12667 11660 11656 1
12668 11661 11657 1
12669 11662 11658 1
12670 11663 11658 1
12671 11664 11658 1
12672 11668 11665 1
12673 11669 11665 1
12674 11670 11666 1
12675 11671 11667 1
12676 11672 11667 1
12677 11673 11667 1
12678 11677 11674 1
12679 11678 11674 1
12680 11679 11675 1
12681 11680 11676 1
12682 11681 11676 1
12683 11682 11676 1
12684 11686 11683 1
12685 11687 11683 1
12686 11688 11684 1
12687 11689 11685 1
12688 11690 11685 1
12689 11691 11685 1
12690 11695 11692 1
12691 11696 11692 1
12692 11697 11693 1
12693 11698 11694 1
12694 11699 11694 1
12695 11700 11694 1
12696 11704 11701 1
12697 11705 11701 1
12698 11706 11702 1
12699 11707 11703 1
12700 11708 11703 1
12701 11709 11703 1
12702 11713 11710 1
12703 11714 11710 1
12704 11715 11711 1
12705 11716 11712 1
12706 11717 11712 1
12707 11718 11712 1
12708 11722 11719 1
12709 11723 11719 1
12710 11724 11720 1
12711 11725 11721 1
12712 11726 11721 1
12713 11727 11721 1
12714 11731 11728 1
12715 11732 11728 1
12716 11733 11729 1
12717 11734 11730 1
12718 11735 11730 1
12719 11736 11730 1
12720 11740 11737 1
12721 11741 11737 1
12722 11742 11738 1
12723 11743 11739 1
12724 11744 11739 1
12725 11745 11739 1
12726 11749 11746 1
12727 11750 11746 1
12728 11751 11747 1
12729 11752 11748 1
12730 11753 11748 1
12731 11754 11748 1
12732 11758 11755 1
12733 11759 11755 1
12734 11760 11756 1
12735 11761 11757 1
12736 11762 11757 1
12737 11763 11757 1
12738 11767 11764 1
12739 11768 11764 1
12740 11769 11765 1
12741 11770 11766 1
12742 11771 11766 1
12743 11772 11766 1
12744 11776 11773 1
12745 11777 11773 1
12746 11778 11774 1
12747 11779 11775 1
12748 11780 11775 1
12749 11781 11775 1
12750 11785 11782 1
12751 11786 11782 1
12752 11787 11783 1
12753 11788 11784 1
12754 11789 11784 1
12755 11790 11784 1
12756 11794 11791 1
12757 11795 11791 1
12758 11796 11792 1
12759 11797 11793 1
12760 11798 11793 1
12761 11799 11793 1
12762 11803 11800 1
12763 11804 11800 1
12764 11805 11801 1
12765 11806 11802 1
12766 11807 11802 1
12767 11808 11802 1
12768 11812 11809 1
12769 11813 11809 1
12770 11814 11810 1
12771 11815 11811 1
12772 11816 11811 1
12773 11817 11811 1
12774 11821 11818 1
12775 11822 11818 1
12776 11823 11819 1
12777 11824 11820 1
12778 11825 11820 1
12779 11826 11820 1
12780 11830 11827 1
12781 11831 11827 1
12782 11832 11828 1
12783 11833 11829 1
12784 11834 11829 1
12785 11835 11829 1
12786 11839 11836 1
12787 11840 11836 1
12788 11841 11837 1
12789 11842 11838 1
12790 11843 11838 1
12791 11844 11838 1
12792 11848 11845 1
12793 11849 11845 1
12794 11850 11846 1
12795 11851 11847 1
12796 11852 11847 1
12797 11853 11847 1
12798 11857 11854 1
12799 11858 11854 1
12800 11859 11855 1
12801 11860 11856 1
12802 11861 11856 1
12803 11862 11856 1
12804 11866 11863 1
12805 11867 11863 1
12806 11868 11864 1
12807 11869 11865 1
12808 11870 11865 1
12809 11871 11865 1
12810 11875 11872 1
12811 11876 11872 1
12812 11877 11873 1
12813 11878 11874 1
12814 11879 11874 1
12815 11880 11874 1
12816 11884 11881 1
12817 11885 11881 1
12818 11886 11882 1
12819 11887 11883 1
12820 11888 11883 1
12821 11889 11883 1
12822 11893 11890 1
12823 11894 11890 1
12824 11895 11891 1
12825 11896 11892 1
12826 11897 11892 1
12827 11898 11892 1
12828 11902 11899 1
12829 11903 11899 1
12830 11904 11900 1
12831 11905 11901 1
12832 11906 11901 1
12833 11907 11901 1
12834 11911 11908 1
12835 11912 11908 1
12836 11913 11909 1
12837 11914 11910 1
12838 11915 11910 1
12839 11916 11910 1
12840 11920 11917 1
12841 11921 11917 1
12842 11922 11918 1
12843 11923 11919 1
12844 11924 11919 1
12845 11925 11919 1
12846 11929 11926 1
12847 11930 11926 1
12848 11931 11927 1
12849 11932 11928 1
12850 11933 11928 1
12851 11934 11928 1
12852 11938 11935 1
12853 11939 11935 1
12854 11940 11936 1
12855 11941 11937 1
12856 11942 11937 1
12857 11943 11937 1
12858 11947 11944 1
12859 11948 11944 1
12860 11949 11945 1
12861 11950 11946 1
12862 11951 11946 1
12863 11952 11946 1
12864 11956 11953 1
12865 11957 11953 1
12866 11958 11954 1
12867 11959 11955 1
12868 11960 11955 1
12869 11961 11955 1
12870 11965 11962 1
12871 11966 11962 1
12872 11967 11963 1
12873 11968 11964 1
12874 11969 11964 1
12875 11970 11964 1
12876 11974 11971 1
12877 11975 11971 1
12878 11976 11972 1
12879 11977 11973 1
12880 11978 11973 1
12881 11979 11973 1
12882 11983 11980 1
12883 11984 11980 1
12884 11985 11981 1
12885 11986 11982 1
12886 11987 11982 1
12887 11988 11982 1
12888 11992 11989 1
12889 11993 11989 1
12890 11994 11990 1
12891 11995 11991 1
12892 11996 11991 1
12893 11997 11991 1
12894 12001 11998 1
12895 12002 11998 1
12896 12003 11999 1
12897 12004 12000 1
12898 12005 12000 1
12899 12006 12000 1
12900 12010 12007 1
12901 12011 12007 1
12902 12012 12008 1
12903 12013 12009 1
12904 12014 12009 1
12905 12015 12009 1
12906 12019 12016 1
12907 12020 12016 1
12908 12021 12017 1
12909 12022 12018 1
12910 12023 12018 1
12911 12024 12018 1
12912 12028 12025 1
12913 12029 12025 1
12914 12030 12026 1
12915 12031 12027 1
12916 12032 12027 1
12917 12033 12027 1
12918 12037 12034 1
12919 12038 12034 1
12920 12039 12035 1
12921 12040 12036 1
12922 12041 12036 1
12923 12042 12036 1
12924 12046 12043 1
12925 12047 12043 1
12926 12048 12044 1
12927 12049 12045 1
12928 12050 12045 1
12929 12051 12045 1
12930 12055 12052 1
12931 12056 12052 1
12932 12057 12053 1
12933 12058 12054 1
12934 12059 12054 1
12935 12060 12054 1
12936 12064 12061 1
12937 12065 12061 1
12938 12066 12062 1
12939 12067 12063 1
12940 12068 12063 1
12941 12069 12063 1
12942 12073 12070 1
12943 12074 12070 1
12944 12075 12071 1
12945 12076 12072 1
12946 12077 12072 1
12947 12078 12072 1
12948 12082 12079 1
12949 12083 12079 1
12950 12084 12080 1
12951 12085 12081 1
12952 12086 12081 1
12953 12087 12081 1
12954 12091 12088 1
12955 12092 12088 1
12956 12093 12089 1
12957 12094 12090 1
12958 12095 12090 1
12959 12096 12090 1
12960 12100 12097 1
12961 12101 12097 1
12962 12102 12098 1
12963 12103 12099 1
12964 12104 12099 1
12965 12105 12099 1
12966 12109 12106 1
12967 12110 12106 1
12968 12111 12107 1
12969 12112 12108 1
12970 12113 12108 1
12971 12114 12108 1
12972 12118 12115 1
12973 12119 12115 1
12974 12120 12116 1
12975 12121 12117 1
12976 12122 12117 1
12977 12123 12117 1
12978 12127 12124 1
12979 12128 12124 1
12980 12129 12125 1
12981 12130 12126 1
12982 12131 12126 1
12983 12132 12126 1
12984 12136 12133 1
12985 12137 12133 1
12986 12138 12134 1
12987 12139 12135 1
12988 12140 12135 1
12989 12141 12135 1
12990 12145 12142 1
12991 12146 12142 1
12992 12147 12143 1
12993 12148 12144 1
12994 12149 12144 1
12995 12150 12144 1
12996 12154 12151 1
12997 12155 12151 1
12998 12156 12152 1
12999 12157 12153 1
13000 12158 12153 1
13001 12159 12153 1
13002 12163 12160 1
13003 12164 12160 1
13004 12165 12161 1
13005 12166 12162 1
13006 12167 12162 1
13007 12168 12162 1
13008 12172 12169 1
13009 12173 12169 1
13010 12174 12170 1
13011 12175 12171 1
13012 12176 12171 1
13013 12177 12171 1
13014 12181 12178 1
13015 12182 12178 1
13016 12183 12179 1
13017 12184 12180 1
13018 12185 12180 1
13019 12186 12180 1
13020 12190 12187 1
13021 12191 12187 1
13022 12192 12188 1
13023 12193 12189 1
13024 12194 12189 1
13025 12195 12189 1
13026 12199 12196 1
13027 12200 12196 1
13028 12201 12197 1
13029 12202 12198 1
13030 12203 12198 1
13031 12204 12198 1
13032 12208 12205 1
13033 12209 12205 1
13034 12210 12206 1
13035 12211 12207 1
13036 12212 12207 1
13037 12213 12207 1
13038 12217 12214 1
13039 12218 12214 1
13040 12219 12215 1
13041 12220 12216 1
13042 12221 12216 1
13043 12222 12216 1
13044 12226 12223 1
13045 12227 12223 1
13046 12228 12224 1
13047 12229 12225 1
13048 12230 12225 1
13049 12231 12225 1
13050 12235 12232 1
13051 12236 12232 1
13052 12237 12233 1
13053 12238 12234 1
13054 12239 12234 1
13055 12240 12234 1
13056 12244 12241 1
13057 12245 12241 1
13058 12246 12242 1
13059 12247 12243 1
13060 12248 12243 1
13061 12249 12243 1
13062 12253 12250 1
13063 12254 12250 1
13064 12255 12251 1
13065 12256 12252 1
13066 12257 12252 1
13067 12258 12252 1
13068 12262 12259 1
13069 12263 12259 1
13070 12264 12260 1
13071 12265 12261 1
13072 12266 12261 1
13073 12267 12261 1
13074 12271 12268 1
13075 12272 12268 1
13076 12273 12269 1
13077 12274 12270 1
13078 12275 12270 1
13079 12276 12270 1
13080 12280 12277 1
13081 12281 12277 1
13082 12282 12278 1
13083 12283 12279 1
13084 12284 12279 1
13085 12285 12279 1
13086 12289 12286 1
13087 12290 12286 1
13088 12291 12287 1
13089 12292 12288 1
13090 12293 12288 1
13091 12294 12288 1
13092 12298 12295 1
13093 12299 12295 1
13094 12300 12296 1
13095 12301 12297 1
13096 12302 12297 1
13097 12303 12297 1
13098 12307 12304 1
13099 12308 12304 1
13100 12309 12305 1
13101 12310 12306 1
13102 12311 12306 1
13103 12312 12306 1
13104 12316 12313 1
13105 12317 12313 1
13106 12318 12314 1
13107 12319 12315 1
13108 12320 12315 1
13109 12321 12315 1
13110 12325 12322 1
13111 12326 12322 1
13112 12327 12323 1
13113 12328 12324 1
13114 12329 12324 1
13115 12330 12324 1
13116 12334 12331 1
13117 12335 12331 1
13118 12336 12332 1
13119 12337 12333 1
13120 12338 12333 1
13121 12339 12333 1
13122 12343 12340 1
13123 12344 12340 1
13124 12345 12341 1
13125 12346 12342 1
13126 12347 12342 1
13127 12348 12342 1
13128 12352 12349 1
13129 12353 12349 1
13130 12354 12350 1
13131 12355 12351 1
13132 12356 12351 1
13133 12357 12351 1
13134 12361 12358 1
13135 12362 12358 1
13136 12363 12359 1
13137 12364 12360 1
13138 12365 12360 1
13139 12366 12360 1
13140 12370 12367 1
13141 12371 12367 1
13142 12372 12368 1
13143 12373 12369 1
13144 12374 12369 1
13145 12375 12369 1
13146 12379 12376 1
13147 12380 12376 1
13148 12381 12377 1
13149 12382 12378 1
13150 12383 12378 1
13151 12384 12378 1
13152 12388 12385 1
13153 12389 12385 1
13154 12390 12386 1
13155 12391 12387 1
13156 12392 12387 1
13157 12393 12387 1
13158 12397 12394 1
13159 12398 12394 1
13160 12399 12395 1
13161 12400 12396 1
13162 12401 12396 1
13163 12402 12396 1
13164 12406 12403 1
13165 12407 12403 1
13166 12408 12404 1
13167 12409 12405 1
13168 12410 12405 1
13169 12411 12405 1
13170 12415 12412 1
13171 12416 12412 1
13172 12417 12413 1
13173 12418 12414 1
13174 12419 12414 1
13175 12420 12414 1
13176 12424 12421 1
13177 12425 12421 1
13178 12426 12422 1
13179 12427 12423 1
13180 12428 12423 1
13181 12429 12423 1
13182 12433 12430 1
13183 12434 12430 1
13184 12435 12431 1
13185 12436 12432 1
13186 12437 12432 1
13187 12438 12432 1
13188 12442 12439 1
13189 12443 12439 1
13190 12444 12440 1
13191 12445 12441 1
13192 12446 12441 1
13193 12447 12441 1
13194 12451 12448 1
13195 12452 12448 1
13196 12453 12449 1
13197 12454 12450 1
13198 12455 12450 1
13199 12456 12450 1
13200 12460 12457 1
13201 12461 12457 1
13202 12462 12458 1
13203 12463 12459 1
13204 12464 12459 1
13205 12465 12459 1
13206 12469 12466 1
13207 12470 12466 1
13208 12471 12467 1
13209 12472 12468 1
13210 12473 12468 1
13211 12474 12468 1
13212 12478 12475 1
13213 12479 12475 1
13214 12480 12476 1
13215 12481 12477 1
13216 12482 12477 1
13217 12483 12477 1
13218 12487 12484 1
13219 12488 12484 1
13220 12489 12485 1
13221 12490 12486 1
13222 12491 12486 1
13223 12492 12486 1
13224 12496 12493 1
13225 12497 12493 1
13226 12498 12494 1
13227 12499 12495 1
13228 12500 12495 1
13229 12501 12495 1
13230 12505 12502 1
13231 12506 12502 1
13232 12507 12503 1
13233 12508 12504 1
13234 12509 12504 1
13235 12510 12504 1
13236 12514 12511 1
13237 12515 12511 1
13238 12516 12512 1
13239 12517 12513 1
13240 12518 12513 1
13241 12519 12513 1
13242 12523 12520 1
13243 12524 12520 1
13244 12525 12521 1
13245 12526 12522 1
13246 12527 12522 1
13247 12528 12522 1
13248 12532 12529 1
13249 12533 12529 1
13250 12534 12530 1
13251 12535 12531 1
13252 12536 12531 1
13253 12537 12531 1
13254 12541 12538 1
13255 12542 12538 1
13256 12543 12539 1
13257 12544 12540 1
13258 12545 12540 1
13259 12546 12540 1
13260 12550 12547 1
13261 12551 12547 1
13262 12552 12548 1
13263 12553 12549 1
13264 12554 12549 1
13265 12555 12549 1
13266 12559 12556 1
13267 12560 12556 1
13268 12561 12557 1
13269 12562 12558 1
13270 12563 12558 1
13271 12564 12558 1
13272 12568 12565 1
13273 12569 12565 1
13274 12570 12566 1
13275 12571 12567 1
13276 12572 12567 1
13277 12573 12567 1
13278 12577 12574 1
13279 12578 12574 1
13280 12579 12575 1
13281 12580 12576 1
13282 12581 12576 1
13283 12582 12576 1
13284 12586 12583 1
13285 12587 12583 1
13286 12588 12584 1
13287 12589 12585 1
13288 12590 12585 1
13289 12591 12585 1
13290 12595 12592 1
13291 12596 12592 1
13292 12597 12593 1
13293 12598 12594 1
13294 12599 12594 1
13295 12600 12594 1
13296 12604 12601 1
13297 12605 12601 1
13298 12606 12602 1
13299 12607 12603 1
13300 12608 12603 1
13301 12609 12603 1
13302 12613 12610 1
13303 12614 12610 1
13304 12615 12611 1
13305 12616 12612 1
13306 12617 12612 1
13307 12618 12612 1
13308 12622 12619 1
13309 12623 12619 1
13310 12624 12620 1
13311 12625 12621 1
13312 12626 12621 1
13313 12627 12621 1
13314 12631 12628 1
13315 12632 12628 1
13316 12633 12629 1
13317 12634 12630 1
13318 12635 12630 1
13319 12636 12630 1
13320 12640 12637 1
13321 12641 12637 1
13322 12642 12638 1
13323 12643 12639 1
13324 12644 12639 1
13325 12645 12639 1
13326 12649 12646 1
13327 12650 12646 1
13328 12651 12647 1
13329 12652 12648 1
13330 12653 12648 1
13331 12654 12648 1
13332 12658 12655 1
13333 12659 12655 1
13334 12660 12656 1
13335 12661 12657 1
13336 12662 12657 1
13337 12663 12657 1
13338 12667 12664 1
13339 12668 12664 1
13340 12669 12665 1
13341 12670 12666 1
13342 12671 12666 1
13343 12672 12666 1
13344 12676 12673 1
13345 12677 12673 1
13346 12678 12674 1
13347 12679 12675 1
13348 12680 12675 1
13349 12681 12675 1
13350 12685 12682 1
13351 12686 12682 1
13352 12687 12683 1
13353 12688 12684 1
13354 12689 12684 1
13355 12690 12684 1
13356 12694 12691 1
13357 12695 12691 1
13358 12696 12692 1
13359 12697 12693 1
13360 12698 12693 1
13361 12699 12693 1
13362 12703 12700 1
13363 12704 12700 1
13364 12705 12701 1
13365 12706 12702 1
13366 12707 12702 1
13367 12708 12702 1
13368 12712 12709 1
13369 12713 12709 1
13370 12714 12710 1
13371 12715 12711 1
13372 12716 12711 1
13373 12717 12711 1
13374 12721 12718 1
13375 12722 12718 1
13376 12723 12719 1
13377 12724 12720 1
13378 12725 12720 1
13379 12726 12720 1
13380 12730 12727 1
13381 12731 12727 1
13382 12732 12728 1
13383 12733 12729 1
13384 12734 12729 1
13385 12735 12729 1
13386 12739 12736 1
13387 12740 12736 1
13388 12741 12737 1
13389 12742 12738 1
13390 12743 12738 1
13391 12744 12738 1
13392 12748 12745 1
13393 12749 12745 1
13394 12750 12746 1
13395 12751 12747 1
13396 12752 12747 1
13397 12753 12747 1
13398 12757 12754 1
13399 12758 12754 1
13400 12759 12755 1
13401 12760 12756 1
13402 12761 12756 1
13403 12762 12756 1
13404 12766 12763 1
13405 12767 12763 1
13406 12768 12764 1
13407 12769 12765 1
13408 12770 12765 1
13409 12771 12765 1
13410 12775 12772 1
13411 12776 12772 1
13412 12777 12773 1
13413 12778 12774 1
13414 12779 12774 1
13415 12780 12774 1
13416 12784 12781 1
13417 12785 12781 1
13418 12786 12782 1
13419 12787 12783 1
13420 12788 12783 1
13421 12789 12783 1
13422 12793 12790 1
13423 12794 12790 1
13424 12795 12791 1
13425 12796 12792 1
13426 12797 12792 1
13427 12798 12792 1
13428 12802 12799 1
13429 12803 12799 1
13430 12804 12800 1
13431 12805 12801 1
13432 12806 12801 1
13433 12807 12801 1
13434 12811 12808 1
13435 12812 12808 1
13436 12813 12809 1
13437 12814 12810 1
13438 12815 12810 1
13439 12816 12810 1
13440 12820 12817 1
13441 12821 12817 1
13442 12822 12818 1
13443 12823 12819 1
13444 12824 12819 1
13445 12825 12819 1
13446 12829 12826 1
13447 12830 12826 1
13448 12831 12827 1
13449 12832 12828 1
13450 12833 12828 1
13451 12834 12828 1
13452 12838 12835 1
13453 12839 12835 1
13454 12840 12836 1
13455 12841 12837 1
13456 12842 12837 1
13457 12843 12837 1
13458 12847 12844 1
13459 12848 12844 1
13460 12849 12845 1
13461 12850 12846 1
13462 12851 12846 1
13463 12852 12846 1
13464 12856 12853 1
13465 12857 12853 1
13466 12858 12854 1
13467 12859 12855 1
13468 12860 12855 1
13469 12861 12855 1
13470 12865 12862 1
13471 12866 12862 1
13472 12867 12863 1
13473 12868 12864 1
13474 12869 12864 1
13475 12870 12864 1
13476 12874 12871 1
13477 12875 12871 1
13478 12876 12872 1
13479 12877 12873 1
13480 12878 12873 1
13481 12879 12873 1
13482 12883 12880 1
13483 12884 12880 1
13484 12885 12881 1
13485 12886 12882 1
13486 12887 12882 1
13487 12888 12882 1
13488 12892 12889 1
13489 12893 12889 1
13490 12894 12890 1
13491 12895 12891 1
13492 12896 12891 1
13493 12897 12891 1
13494 12901 12898 1
13495 12902 12898 1
13496 12903 12899 1
13497 12904 12900 1
13498 12905 12900 1
13499 12906 12900 1
13500 12910 12907 1
13501 12911 12907 1
13502 12912 12908 1
13503 12913 12909 1
13504 12914 12909 1
13505 12915 12909 1
13506 12919 12916 1
13507 12920 12916 1
13508 12921 12917 1
13509 12922 12918 1
13510 12923 12918 1
13511 12924 12918 1
13512 12928 12925 1
13513 12929 12925 1
13514 12930 12926 1
13515 12931 12927 1
13516 12932 12927 1
13517 12933 12927 1
13518 12937 12934 1
13519 12938 12934 1
13520 12939 12935 1
13521 12940 12936 1
13522 12941 12936 1
13523 12942 12936 1
13524 12946 12943 1
13525 12947 12943 1
13526 12948 12944 1
13527 12949 12945 1
13528 12950 12945 1
13529 12951 12945 1
13530 12955 12952 1
13531 12956 12952 1
13532 12957 12953 1
13533 12958 12954 1
13534 12959 12954 1
13535 12960 12954 1
13536 12964 12961 1
13537 12965 12961 1
13538 12966 12962 1
13539 12967 12963 1
13540 12968 12963 1
13541 12969 12963 1
13542 12973 12970 1
13543 12974 12970 1
13544 12975 12971 1
13545 12976 12972 1
13546 12977 12972 1
13547 12978 12972 1
13548 12982 12979 1
13549 12983 12979 1
13550 12984 12980 1
13551 12985 12981 1
13552 12986 12981 1
13553 12987 12981 1
13554 12991 12988 1
13555 12992 12988 1
13556 12993 12989 1
13557 12994 12990 1
13558 12995 12990 1
13559 12996 12990 1
13560 13000 12997 1
13561 13001 12997 1
13562 13002 12998 1
13563 13003 12999 1
13564 13004 12999 1
13565 13005 12999 1
13566 13009 13006 1
13567 13010 13006 1
13568 13011 13007 1
13569 13012 13008 1
13570 13013 13008 1
13571 13014 13008 1
13572 13018 13015 1
13573 13019 13015 1
13574 13020 13016 1
13575 13021 13017 1
13576 13022 13017 1
13577 13023 13017 1
13578 13027 13024 1
13579 13028 13024 1
13580 13029 13025 1
13581 13030 13026 1
13582 13031 13026 1
13583 13032 13026 1
13584 13036 13033 1
13585 13037 13033 1
13586 13038 13034 1
13587 13039 13035 1
13588 13040 13035 1
13589 13041 13035 1
13590 13045 13042 1
13591 13046 13042 1
13592 13047 13043 1
13593 13048 13044 1
13594 13049 13044 1
13595 13050 13044 1
13596 13054 13051 1
13597 13055 13051 1
13598 13056 13052 1
13599 13057 13053 1
13600 13058 13053 1
13601 13059 13053 1
13602 13063 13060 1
13603 13064 13060 1
13604 13065 13061 1
13605 13066 13062 1
13606 13067 13062 1
13607 13068 13062 1
13608 13072 13069 1
13609 13073 13069 1
13610 13074 13070 1
13611 13075 13071 1
13612 13076 13071 1
13613 13077 13071 1
13614 13081 13078 1
13615 13082 13078 1
13616 13083 13079 1
13617 13084 13080 1
13618 13085 13080 1
13619 13086 13080 1
13620 13090 13087 1
13621 13091 13087 1
13622 13092 13088 1
13623 13093 13089 1
13624 13094 13089 1
13625 13095 13089 1
13626 13099 13096 1
13627 13100 13096 1
13628 13101 13097 1
13629 13102 13098 1
13630 13103 13098 1
13631 13104 13098 1
13632 13108 13105 1
13633 13109 13105 1
13634 13110 13106 1
13635 13111 13107 1
13636 13112 13107 1
13637 13113 13107 1
13638 13117 13114 1
13639 13118 13114 1
13640 13119 13115 1
13641 13120 13116 1
13642 13121 13116 1
13643 13122 13116 1
13644 13126 13123 1
13645 13127 13123 1
13646 13128 13124 1
13647 13129 13125 1
13648 13130 13125 1
13649 13131 13125 1
13650 13135 13132 1
13651 13136 13132 1
13652 13137 13133 1
13653 13138 13134 1
13654 13139 13134 1
13655 13140 13134 1
13656 13144 13141 1
13657 13145 13141 1
13658 13146 13142 1
13659 13147 13143 1
13660 13148 13143 1
13661 13149 13143 1
13662 13153 13150 1
13663 13154 13150 1
13664 13155 13151 1
13665 13156 13152 1
13666 13157 13152 1
13667 13158 13152 1
13668 13162 13159 1
13669 13163 13159 1
13670 13164 13160 1
13671 13165 13161 1
13672 13166 13161 1
13673 13167 13161 1
13674 13171 13168 1
13675 13172 13168 1
13676 13173 13169 1
13677 13174 13170 1
13678 13175 13170 1
13679 13176 13170 1
13680 13180 13177 1
13681 13181 13177 1
13682 13182 13178 1
13683 13183 13179 1
13684 13184 13179 1
13685 13185 13179 1
13686 13189 13186 1
13687 13190 13186 1
13688 13191 13187 1
13689 13192 13188 1
13690 13193 13188 1
13691 13194 13188 1
13692 13198 13195 1
13693 13199 13195 1
13694 13200 13196 1
13695 13201 13197 1
13696 13202 13197 1
13697 13203 13197 1
13698 13207 13204 1
13699 13208 13204 1
13700 13209 13205 1
13701 13210 13206 1
13702 13211 13206 1
13703 13212 13206 1
13704 13216 13213 1
13705 13217 13213 1
13706 13218 13214 1
13707 13219 13215 1
13708 13220 13215 1
13709 13221 13215 1
13710 13225 13222 1
13711 13226 13222 1
13712 13227 13223 1
13713 13228 13224 1
13714 13229 13224 1
13715 13230 13224 1
13716 13234 13231 1
13717 13235 13231 1
13718 13236 13232 1
13719 13237 13233 1
13720 13238 13233 1
13721 13239 13233 1
13722 13243 13240 1
13723 13244 13240 1
13724 13245 13241 1
13725 13246 13242 1
13726 13247 13242 1
13727 13248 13242 1
13728 13252 13249 1
13729 13253 13249 1
13730 13254 13250 1
13731 13255 13251 1
13732 13256 13251 1
13733 13257 13251 1
13734 13261 13258 1
13735 13262 13258 1
13736 13263 13259 1
13737 13264 13260 1
13738 13265 13260 1
13739 13266 13260 1
13740 13270 13267 1
13741 13271 13267 1
13742 13272 13268 1
13743 13273 13269 1
13744 13274 13269 1
13745 13275 13269 1
13746 13279 13276 1
13747 13280 13276 1
13748 13281 13277 1
13749 13282 13278 1
13750 13283 13278 1
13751 13284 13278 1
13752 13288 13285 1
13753 13289 13285 1
13754 13290 13286 1
13755 13291 13287 1
13756 13292 13287 1
13757 13293 13287 1
13758 13297 13294 1
13759 13298 13294 1
13760 13299 13295 1
13761 13300 13296 1
13762 13301 13296 1
13763 13302 13296 1
13764 13306 13303 1
13765 13307 13303 1
13766 13308 13304 1
13767 13309 13305 1
13768 13310 13305 1
13769 13311 13305 1
13770 13315 13312 1
13771 13316 13312 1
13772 13317 13313 1
13773 13318 13314 1
13774 13319 13314 1
13775 13320 13314 1
13776 13324 13321 1
13777 13325 13321 1
13778 13326 13322 1
13779 13327 13323 1
13780 13328 13323 1
13781 13329 13323 1
13782 13333 13330 1
13783 13334 13330 1
13784 13335 13331 1
13785 13336 13332 1
13786 13337 13332 1
13787 13338 13332 1
13788 13342 13339 1
13789 13343 13339 1
13790 13344 13340 1
13791 13345 13341 1
13792 13346 13341 1
13793 13347 13341 1
13794 13351 13348 1
13795 13352 13348 1
13796 13353 13349 1
13797 13354 13350 1
13798 13355 13350 1
13799 13356 13350 1
13800 13360 13357 1
13801 13361 13357 1
13802 13362 13358 1
13803 13363 13359 1
13804 13364 13359 1
13805 13365 13359 1
13806 13369 13366 1
13807 13370 13366 1
13808 13371 13367 1
13809 13372 13368 1
13810 13373 13368 1
13811 13374 13368 1
13812 13378 13375 1
13813 13379 13375 1
13814 13380 13376 1
13815 13381 13377 1
13816 13382 13377 1
13817 13383 13377 1
13818 13387 13384 1
13819 13388 13384 1
13820 13389 13385 1
13821 13390 13386 1
13822 13391 13386 1
13823 13392 13386 1
13824 13396 13393 1
13825 13397 13393 1
13826 13398 13394 1
13827 13399 13395 1
13828 13400 13395 1
13829 13401 13395 1
13830 13405 13402 1
13831 13406 13402 1
13832 13407 13403 1
13833 13408 13404 1
13834 13409 13404 1
13835 13410 13404 1
13836 13414 13411 1
13837 13415 13411 1
13838 13416 13412 1
13839 13417 13413 1
13840 13418 13413 1
13841 13419 13413 1
13842 13423 13420 1
13843 13424 13420 1
13844 13425 13421 1
13845 13426 13422 1
13846 13427 13422 1
13847 13428 13422 1
13848 13432 13429 1
13849 13433 13429 1
13850 13434 13430 1
13851 13435 13431 1
13852 13436 13431 1
13853 13437 13431 1
13854 13441 13438 1
13855 13442 13438 1
13856 13443 13439 1
13857 13444 13440 1
13858 13445 13440 1
13859 13446 13440 1
13860 13450 13447 1
13861 13451 13447 1
13862 13452 13448 1
13863 13453 13449 1
13864 13454 13449 1
13865 13455 13449 1
13866 13459 13456 1
13867 13460 13456 1
13868 13461 13457 1
13869 13462 13458 1
13870 13463 13458 1
13871 13464 13458 1
13872 13468 13465 1
13873 13469 13465 1
13874 13470 13466 1
13875 13471 13467 1
13876 13472 13467 1
13877 13473 13467 1
13878 13477 13474 1
13879 13478 13474 1
13880 13479 13475 1
13881 13480 13476 1
13882 13481 13476 1
13883 13482 13476 1
13884 13486 13483 1
13885 13487 13483 1
13886 13488 13484 1
13887 13489 13485 1
13888 13490 13485 1
13889 13491 13485 1
13890 13495 13492 1
13891 13496 13492 1
13892 13497 13493 1
13893 13498 13494 1
13894 13499 13494 1
13895 13500 13494 1
13896 13504 13501 1
13897 13505 13501 1
13898 13506 13502 1
13899 13507 13503 1
13900 13508 13503 1
13901 13509 13503 1
13902 13513 13510 1
13903 13514 13510 1
13904 13515 13511 1
13905 13516 13512 1
13906 13517 13512 1
13907 13518 13512 1
13908 13522 13519 1
13909 13523 13519 1
13910 13524 13520 1
13911 13525 13521 1
13912 13526 13521 1
13913 13527 13521 1
13914 13531 13528 1
13915 13532 13528 1
13916 13533 13529 1
13917 13534 13530 1
13918 13535 13530 1
13919 13536 13530 1
13920 13540 13537 1
13921 13541 13537 1
13922 13542 13538 1
13923 13543 13539 1
13924 13544 13539 1
13925 13545 13539 1
13926 13549 13546 1
13927 13550 13546 1
13928 13551 13547 1
13929 13552 13548 1
13930 13553 13548 1
13931 13554 13548 1
13932 13558 13555 1
13933 13559 13555 1
13934 13560 13556 1
13935 13561 13557 1
13936 13562 13557 1
13937 13563 13557 1
13938 13567 13564 1
13939 13568 13564 1
13940 13569 13565 1
13941 13570 13566 1
13942 13571 13566 1
13943 13572 13566 1
13944 13576 13573 1
13945 13577 13573 1
13946 13578 13574 1
13947 13579 13575 1
13948 13580 13575 1
13949 13581 13575 1
13950 13585 13582 1
13951 13586 13582 1
13952 13587 13583 1
13953 13588 13584 1
13954 13589 13584 1
13955 13590 13584 1
13956 13594 13591 1
13957 13595 13591 1
13958 13596 13592 1
13959 13597 13593 1
13960 13598 13593 1
13961 13599 13593 1
13962 13603 13600 1
13963 13604 13600 1
13964 13605 13601 1
13965 13606 13602 1
13966 13607 13602 1
13967 13608 13602 1
13968 13612 13609 1
13969 13613 13609 1
13970 13614 13610 1
13971 13615 13611 1
13972 13616 13611 1
13973 13617 13611 1
13974 13621 13618 1
13975 13622 13618 1
13976 13623 13619 1
13977 13624 13620 1
13978 13625 13620 1
13979 13626 13620 1
13980 13630 13627 1
13981 13631 13627 1
13982 13632 13628 1
13983 13633 13629 1
13984 13634 13629 1
13985 13635 13629 1
13986 13639 13636 1
13987 13640 13636 1
13988 13641 13637 1
13989 13642 13638 1
13990 13643 13638 1
13991 13644 13638 1
13992 13648 13645 1
13993 13649 13645 1
13994 13650 13646 1
13995 13651 13647 1
13996 13652 13647 1
13997 13653 13647 1
13998 13657 13654 1
13999 13658 13654 1
14000 13659 13655 1
14001 13660 13656 1
14002 13661 13656 1
14003 13662 13656 1
14004 13666 13663 1
14005 13667 13663 1
14006 13668 13664 1
14007 13669 13665 1
14008 13670 13665 1
14009 13671 13665 1
14010 13675 13672 1
14011 13676 13672 1
14012 13677 13673 1
14013 13678 13674 1
14014 13679 13674 1
14015 13680 13674 1
14016 13684 13681 1
14017 13685 13681 1
14018 13686 13682 1
14019 13687 13683 1
14020 13688 13683 1
14021 13689 13683 1
14022 13693 13690 1
14023 13694 13690 1
14024 13695 13691 1
14025 13696 13692 1
14026 13697 13692 1
14027 13698 13692 1
14028 13702 13699 1
14029 13703 13699 1
14030 13704 13700 1
14031 13705 13701 1
14032 13706 13701 1
14033 13707 13701 1
14034 13711 13708 1
14035 13712 13708 1
14036 13713 13709 1
14037 13714 13710 1
14038 13715 13710 1
14039 13716 13710 1
14040 13720 13717 1
14041 13721 13717 1
14042 13722 13718 1
14043 13723 13719 1
14044 13724 13719 1
14045 13725 13719 1
14046 13729 13726 1
14047 13730 13726 1
14048 13731 13727 1
14049 13732 13728 1
14050 13733 13728 1
14051 13734 13728 1
14052 13738 13735 1
14053 13739 13735 1
14054 13740 13736 1
14055 13741 13737 1
14056 13742 13737 1
14057 13743 13737 1
14058 13747 13744 1
14059 13748 13744 1
14060 13749 13745 1
14061 13750 13746 1
14062 13751 13746 1
14063 13752 13746 1
14064 13756 13753 1
14065 13757 13753 1
14066 13758 13754 1
14067 13759 13755 1
14068 13760 13755 1
14069 13761 13755 1
14070 13765 13762 1
14071 13766 13762 1
14072 13767 13763 1
14073 13768 13764 1
14074 13769 13764 1
14075 13770 13764 1
14076 13774 13771 1
14077 13775 13771 1
14078 13776 13772 1
14079 13777 13773 1
14080 13778 13773 1
14081 13779 13773 1
14082 13783 13780 1
14083 13784 13780 1
14084 13785 13781 1
14085 13786 13782 1
14086 13787 13782 1
14087 13788 13782 1
14088 13792 13789 1
14089 13793 13789 1
14090 13794 13790 1
14091 13795 13791 1
14092 13796 13791 1
14093 13797 13791 1
14094 13801 13798 1
14095 13802 13798 1
14096 13803 13799 1
14097 13804 13800 1
14098 13805 13800 1
14099 13806 13800 1
14100 13810 13807 1
14101 13811 13807 1
14102 13812 13808 1
14103 13813 13809 1
14104 13814 13809 1
14105 13815 13809 1
14106 13819 13816 1
14107 13820 13816 1
14108 13821 13817 1
14109 13822 13818 1
14110 13823 13818 1
14111 13824 13818 1
14112 13828 13825 1
14113 13829 13825 1
14114 13830 13826 1
14115 13831 13827 1
14116 13832 13827 1
14117 13833 13827 1
14118 13837 13834 1
14119 13838 13834 1
14120 13839 13835 1
14121 13840 13836 1
14122 13841 13836 1
14123 13842 13836 1
14124 13846 13843 1
14125 13847 13843 1
14126 13848 13844 1
14127 13849 13845 1
14128 13850 13845 1
14129 13851 13845 1
14130 13855 13852 1
14131 13856 13852 1
14132 13857 13853 1
14133 13858 13854 1
14134 13859 13854 1
14135 13860 13854 1
14136 13864 13861 1
14137 13865 13861 1
14138 13866 13862 1
14139 13867 13863 1
14140 13868 13863 1
14141 13869 13863 1
14142 13873 13870 1
14143 13874 13870 1
14144 13875 13871 1
14145 13876 13872 1
14146 13877 13872 1
14147 13878 13872 1
14148 13882 13879 1
14149 13883 13879 1
14150 13884 13880 1
14151 13885 13881 1
14152 13886 13881 1
14153 13887 13881 1
14154 13891 13888 1
14155 13892 13888 1
14156 13893 13889 1
14157 13894 13890 1
14158 13895 13890 1
14159 13896 13890 1
14160 13900 13897 1
14161 13901 13897 1
14162 13902 13898 1
14163 13903 13899 1
14164 13904 13899 1
14165 13905 13899 1
14166 13909 13906 1
14167 13910 13906 1
14168 13911 13907 1
14169 13912 13908 1
14170 13913 13908 1
14171 13914 13908 1
14172 13918 13915 1
14173 13919 13915 1
14174 13920 13916 1
14175 13921 13917 1
14176 13922 13917 1
14177 13923 13917 1
14178 13927 13924 1
14179 13928 13924 1
14180 13929 13925 1
14181 13930 13926 1
14182 13931 13926 1
14183 13932 13926 1
14184 13936 13933 1
14185 13937 13933 1
14186 13938 13934 1
14187 13939 13935 1
14188 13940 13935 1
14189 13941 13935 1
14190 13945 13942 1
14191 13946 13942 1
14192 13947 13943 1
14193 13948 13944 1
14194 13949 13944 1
14195 13950 13944 1
14196 13954 13951 1
14197 13955 13951 1
14198 13956 13952 1
14199 13957 13953 1
14200 13958 13953 1
14201 13959 13953 1
14202 13963 13960 1
14203 13964 13960 1
14204 13965 13961 1
14205 13966 13962 1
14206 13967 13962 1
14207 13968 13962 1
14208 13972 13969 1
14209 13973 13969 1
14210 13974 13970 1
14211 13975 13971 1
14212 13976 13971 1
14213 13977 13971 1
14214 13981 13978 1
14215 13982 13978 1
14216 13983 13979 1
14217 13984 13980 1
14218 13985 13980 1
14219 13986 13980 1
14220 13990 13987 1
14221 13991 13987 1
14222 13992 13988 1
14223 13993 13989 1
14224 13994 13989 1
14225 13995 13989 1
14226 13999 13996 1
14227 14000 13996 1
14228 14001 13997 1
14229 14002 13998 1
14230 14003 13998 1
14231 14004 13998 1
14232 14008 14005 1
14233 14009 14005 1
14234 14010 14006 1
14235 14011 14007 1
14236 14012 14007 1
14237 14013 14007 1
14238 14017 14014 1
14239 14018 14014 1
14240 14019 14015 1
14241 14020 14016 1
14242 14021 14016 1
14243 14022 14016 1
14244 14026 14023 1
14245 14027 14023 1
14246 14028 14024 1
14247 14029 14025 1
14248 14030 14025 1
14249 14031 14025 1
14250 14035 14032 1
14251 14036 14032 1
14252 14037 14033 1
14253 14038 14034 1
14254 14039 14034 1
14255 14040 14034 1
14256 14044 14041 1
14257 14045 14041 1
14258 14046 14042 1
14259 14047 14043 1
14260 14048 14043 1
14261 14049 14043 1
14262 14053 14050 1
14263 14054 14050 1
14264 14055 14051 1
14265 14056 14052 1
14266 14057 14052 1
14267 14058 14052 1
14268 14062 14059 1
14269 14063 14059 1
14270 14064 14060 1
14271 14065 14061 1
14272 14066 14061 1
14273 14067 14061 1
14274 14071 14068 1
14275 14072 14068 1
14276 14073 14069 1
14277 14074 14070 1
14278 14075 14070 1
14279 14076 14070 1
14280 14080 14077 1
14281 14081 14077 1
14282 14082 14078 1
14283 14083 14079 1
14284 14084 14079 1
14285 14085 14079 1
14286 14089 14086 1
14287 14090 14086 1
14288 14091 14087 1
14289 14092 14088 1
14290 14093 14088 1
14291 14094 14088 1
14292 14098 14095 1
14293 14099 14095 1
14294 14100 14096 1
14295 14101 14097 1
14296 14102 14097 1
14297 14103 14097 1
14298 14107 14104 1
14299 14108 14104 1
14300 14109 14105 1
14301 14110 14106 1
14302 14111 14106 1
14303 14112 14106 1
14304 14116 14113 1
14305 14117 14113 1
14306 14118 14114 1
14307 14119 14115 1
14308 14120 14115 1
14309 14121 14115 1
14310 14125 14122 1
14311 14126 14122 1
14312 14127 14123 1
14313 14128 14124 1
14314 14129 14124 1
14315 14130 14124 1
14316 14134 14131 1
14317 14135 14131 1
14318 14136 14132 1
14319 14137 14133 1
14320 14138 14133 1
14321 14139 14133 1
14322 14143 14140 1
14323 14144 14140 1
14324 14145 14141 1
14325 14146 14142 1
14326 14147 14142 1
14327 14148 14142 1
14328 14152 14149 1
14329 14153 14149 1
14330 14154 14150 1
14331 14155 14151 1
14332 14156 14151 1
14333 14157 14151 1
14334 14161 14158 1
14335 14162 14158 1
14336 14163 14159 1
14337 14164 14160 1
14338 14165 14160 1
14339 14166 14160 1
14340 14170 14167 1
14341 14171 14167 1
14342 14172 14168 1
14343 14173 14169 1
14344 14174 14169 1
14345 14175 14169 1
14346 14179 14176 1
14347 14180 14176 1
14348 14181 14177 1
14349 14182 14178 1
14350 14183 14178 1
14351 14184 14178 1
14352 14188 14185 1
14353 14189 14185 1
14354 14190 14186 1
14355 14191 14187 1
14356 14192 14187 1
14357 14193 14187 1
14358 14197 14194 1
14359 14198 14194 1
14360 14199 14195 1
14361 14200 14196 1
14362 14201 14196 1
14363 14202 14196 1
14364 14206 14203 1
14365 14207 14203 1
14366 14208 14204 1
14367 14209 14205 1
14368 14210 14205 1
14369 14211 14205 1
14370 14215 14212 1
14371 14216 14212 1
14372 14217 14213 1
14373 14218 14214 1
14374 14219 14214 1
14375 14220 14214 1
14376 14224 14221 1
14377 14225 14221 1
14378 14226 14222 1
14379 14227 14223 1
14380 14228 14223 1
14381 14229 14223 1
14382 14233 14230 1
14383 14234 14230 1
14384 14235 14231 1
14385 14236 14232 1
14386 14237 14232 1
14387 14238 14232 1
14388 14242 14239 1
14389 14243 14239 1
14390 14244 14240 1
14391 14245 14241 1
14392 14246 14241 1
14393 14247 14241 1
14394 14251 14248 1
14395 14252 14248 1
14396 14253 14249 1
14397 14254 14250 1
14398 14255 14250 1
14399 14256 14250 1
14400 14260 14257 1
14401 14261 14257 1
14402 14262 14258 1
14403 14263 14259 1
14404 14264 14259 1
14405 14265 14259 1
14406 14269 14266 1
14407 14270 14266 1
14408 14271 14267 1
14409 14272 14268 1
14410 14273 14268 1
14411 14274 14268 1
14412 14278 14275 1
14413 14279 14275 1
14414 14280 14276 1
14415 14281 14277 1
14416 14282 14277 1
14417 14283 14277 1
14418 14287 14284 1
14419 14288 14284 1
14420 14289 14285 1
14421 14290 14286 1
14422 14291 14286 1
14423 14292 14286 1
14424 14296 14293 1
14425 14297 14293 1
14426 14298 14294 1
14427 14299 14295 1
14428 14300 14295 1
14429 14301 14295 1
14430 14305 14302 1
14431 14306 14302 1
14432 14307 14303 1
14433 14308 14304 1
14434 14309 14304 1
14435 14310 14304 1
14436 14314 14311 1
14437 14315 14311 1
14438 14316 14312 1
14439 14317 14313 1
14440 14318 14313 1
14441 14319 14313 1
14442 14323 14320 1
14443 14324 14320 1
14444 14325 14321 1
14445 14326 14322 1
14446 14327 14322 1
14447 14328 14322 1
14448 14332 14329 1
14449 14333 14329 1
14450 14334 14330 1
14451 14335 14331 1
14452 14336 14331 1
14453 14337 14331 1
14454 14341 14338 1
14455 14342 14338 1
14456 14343 14339 1
14457 14344 14340 1
14458 14345 14340 1
14459 14346 14340 1
14460 14350 14347 1
14461 14351 14347 1
14462 14352 14348 1
14463 14353 14349 1
14464 14354 14349 1
14465 14355 14349 1
14466 14359 14356 1
14467 14360 14356 1
14468 14361 14357 1
14469 14362 14358 1
14470 14363 14358 1
14471 14364 14358 1
14472 14368 14365 1
14473 14369 14365 1
14474 14370 14366 1
14475 14371 14367 1
14476 14372 14367 1
14477 14373 14367 1
14478 14377 14374 1
14479 14378 14374 1
14480 14379 14375 1
14481 14380 14376 1
14482 14381 14376 1
14483 14382 14376 1
14484 14386 14383 1
14485 14387 14383 1
14486 14388 14384 1
14487 14389 14385 1
14488 14390 14385 1
14489 14391 14385 1
14490 14395 14392 1
14491 14396 14392 1
14492 14397 14393 1
14493 14398 14394 1
14494 14399 14394 1
14495 14400 14394 1
14496 14404 14401 1
14497 14405 14401 1
14498 14406 14402 1
14499 14407 14403 1
14500 14408 14403 1
14501 14409 14403 1
14502 14413 14410 1
14503 14414 14410 1
14504 14415 14411 1
14505 14416 14412 1
14506 14417 14412 1
14507 14418 14412 1
14508 14422 14419 1
14509 14423 14419 1
14510 14424 14420 1
14511 14425 14421 1
14512 14426 14421 1
14513 14427 14421 1
14514 14431 14428 1
14515 14432 14428 1
14516 14433 14429 1
14517 14434 14430 1
14518 14435 14430 1
14519 14436 14430 1
14520 14440 14437 1
14521 14441 14437 1
14522 14442 14438 1
14523 14443 14439 1
14524 14444 14439 1
14525 14445 14439 1
14526 14449 14446 1
14527 14450 14446 1
14528 14451 14447 1
14529 14452 14448 1
14530 14453 14448 1
14531 14454 14448 1
14532 14458 14455 1
14533 14459 14455 1
14534 14460 14456 1
14535 14461 14457 1
14536 14462 14457 1
14537 14463 14457 1
14538 14467 14464 1
14539 14468 14464 1
14540 14469 14465 1
14541 14470 14466 1
14542 14471 14466 1
14543 14472 14466 1
14544 14476 14473 1
14545 14477 14473 1
14546 14478 14474 1
14547 14479 14475 1
14548 14480 14475 1
14549 14481 14475 1
14550 14485 14482 1
14551 14486 14482 1
14552 14487 14483 1
14553 14488 14484 1
14554 14489 14484 1
14555 14490 14484 1
14556 14494 14491 1
14557 14495 14491 1
14558 14496 14492 1
14559 14497 14493 1
14560 14498 14493 1
14561 14499 14493 1
14562 14503 14500 1
14563 14504 14500 1
14564 14505 14501 1
14565 14506 14502 1
14566 14507 14502 1
14567 14508 14502 1
14568 14512 14509 1
14569 14513 14509 1
14570 14514 14510 1
14571 14515 14511 1
14572 14516 14511 1
14573 14517 14511 1
14574 14521 14518 1
14575 14522 14518 1
14576 14523 14519 1
14577 14524 14520 1
14578 14525 14520 1
14579 14526 14520 1
14580 14530 14527 1
14581 14531 14527 1
14582 14532 14528 1
14583 14533 14529 1
14584 14534 14529 1
14585 14535 14529 1
14586 14539 14536 1
14587 14540 14536 1
14588 14541 14537 1
14589 14542 14538 1
14590 14543 14538 1
14591 14544 14538 1
14592 14548 14545 1
14593 14549 14545 1
14594 14550 14546 1
14595 14551 14547 1
14596 14552 14547 1
14597 14553 14547 1
14598 14557 14554 1
14599 14558 14554 1
14600 14559 14555 1
14601 14560 14556 1
14602 14561 14556 1
14603 14562 14556 1
14604 14566 14563 1
14605 14567 14563 1
14606 14568 14564 1
14607 14569 14565 1
14608 14570 14565 1
14609 14571 14565 1
14610 14575 14572 1
14611 14576 14572 1
14612 14577 14573 1
14613 14578 14574 1
14614 14579 14574 1
14615 14580 14574 1
14616 14584 14581 1
14617 14585 14581 1
14618 14586 14582 1
14619 14587 14583 1
14620 14588 14583 1
14621 14589 14583 1
14622 14593 14590 1
14623 14594 14590 1
14624 14595 14591 1
14625 14596 14592 1
14626 14597 14592 1
14627 14598 14592 1
14628 14602 14599 1
14629 14603 14599 1
14630 14604 14600 1
14631 14605 14601 1
14632 14606 14601 1
14633 14607 14601 1
14634 14611 14608 1
14635 14612 14608 1
14636 14613 14609 1
14637 14614 14610 1
14638 14615 14610 1
14639 14616 14610 1
14640 14620 14617 1
14641 14621 14617 1
14642 14622 14618 1
14643 14623 14619 1
14644 14624 14619 1
14645 14625 14619 1
14646 14629 14626 1
14647 14630 14626 1
14648 14631 14627 1
14649 14632 14628 1
14650 14633 14628 1
14651 14634 14628 1
14652 14638 14635 1
14653 14639 14635 1
14654 14640 14636 1
14655 14641 14637 1
14656 14642 14637 1
14657 14643 14637 1
14658 14647 14644 1
14659 14648 14644 1
14660 14649 14645 1
14661 14650 14646 1
14662 14651 14646 1
14663 14652 14646 1
14664 14656 14653 1
14665 14657 14653 1
14666 14658 14654 1
14667 14659 14655 1
14668 14660 14655 1
14669 14661 14655 1
14670 14665 14662 1
14671 14666 14662 1
14672 14667 14663 1
14673 14668 14664 1
14674 14669 14664 1
14675 14670 14664 1
14676 14674 14671 1
14677 14675 14671 1
14678 14676 14672 1
14679 14677 14673 1
14680 14678 14673 1
14681 14679 14673 1
14682 14683 14680 1
14683 14684 14680 1
14684 14685 14681 1
14685 14686 14682 1
14686 14687 14682 1
14687 14688 14682 1
14688 14692 14689 1
14689 14693 14689 1
14690 14694 14690 1
14691 14695 14691 1
14692 14696 14691 1
14693 14697 14691 1
14694 14701 14698 1
14695 14702 14698 1
14696 14703 14699 1
14697 14704 14700 1
14698 14705 14700 1
14699 14706 14700 1
14700 14710 14707 1
14701 14711 14707 1
14702 14712 14708 1
14703 14713 14709 1
14704 14714 14709 1
14705 14715 14709 1
14706 14719 14716 1
14707 14720 14716 1
14708 14721 14717 1
14709 14722 14718 1
14710 14723 14718 1
14711 14724 14718 1
14712 14728 14725 1
14713 14729 14725 1
14714 14730 14726 1
14715 14731 14727 1
14716 14732 14727 1
14717 14733 14727 1
14718 14737 14734 1
14719 14738 14734 1
14720 14739 14735 1
14721 14740 14736 1
14722 14741 14736 1
14723 14742 14736 1
14724 14746 14743 1
14725 14747 14743 1
14726 14748 14744 1
14727 14749 14745 1
14728 14750 14745 1
14729 14751 14745 1
14730 14755 14752 1
14731 14756 14752 1
14732 14757 14753 1
14733 14758 14754 1
14734 14759 14754 1
14735 14760 14754 1
14736 14764 14761 1
14737 14765 14761 1
14738 14766 14762 1
14739 14767 14763 1
14740 14768 14763 1
14741 14769 14763 1
14742 14773 14770 1
14743 14774 14770 1
14744 14775 14771 1
14745 14776 14772 1
14746 14777 14772 1
14747 14778 14772 1
14748 14782 14779 1
14749 14783 14779 1
14750 14784 14780 1
14751 14785 14781 1
14752 14786 14781 1
14753 14787 14781 1
14754 14791 14788 1
14755 14792 14788 1
14756 14793 14789 1
14757 14794 14790 1
14758 14795 14790 1
14759 14796 14790 1
14760 14800 14797 1
14761 14801 14797 1
14762 14802 14798 1
14763 14803 14799 1
14764 14804 14799 1
14765 14805 14799 1
14766 14809 14806 1
14767 14810 14806 1
14768 14811 14807 1
14769 14812 14808 1
14770 14813 14808 1
14771 14814 14808 1
14772 14818 14815 1
14773 14819 14815 1
14774 14820 14816 1
14775 14821 14817 1
14776 14822 14817 1
14777 14823 14817 1
14778 14827 14824 1
14779 14828 14824 1
14780 14829 14825 1
14781 14830 14826 1
14782 14831 14826 1
14783 14832 14826 1
14784 14836 14833 1
14785 14837 14833 1
14786 14838 14834 1
14787 14839 14835 1
14788 14840 14835 1
14789 14841 14835 1
14790 14845 14842 1
14791 14846 14842 1
14792 14847 14843 1
14793 14848 14844 1
14794 14849 14844 1
14795 14850 14844 1
@<TRIPOS>SUBSTRUCTURE
      1 PP                1 ****               0 ****  **** 
      2 PP               10 ****               0 ****  **** 
      3 PP               19 ****               0 ****  **** 
      4 PP               28 ****               0 ****  **** 
      5 PP               37 ****               0 ****  **** 
      6 PP               46 ****               0 ****  **** 
      7 PP               55 ****               0 ****  **** 
      8 PP               64 ****               0 ****  **** 
      9 PP               73 ****               0 ****  **** 
     10 PP               82 ****               0 ****  **** 
     11 PP               91 ****               0 ****  **** 
     12 PP              100 ****               0 ****  **** 
     13 PP              109 ****               0 ****  **** 
     14 PP              118 ****               0 ****  **** 
     15 PP              127 ****               0 ****  **** 
     16 PP              136 ****               0 ****  **** 
     17 PP              145 ****               0 ****  **** 
     18 PP              154 ****               0 ****  **** 
     19 PP              163 ****               0 ****  **** 
     20 PP              172 ****               0 ****  **** 
     21 PP              181 ****               0 ****  **** 
     22 PP              190 ****               0 ****  **** 
     23 PP              199 ****               0 ****  **** 
     24 PP              208 ****               0 ****  **** 
     25 PP              217 ****               0 ****  **** 
     26 PP              226 ****               0 ****  **** 
     27 PP              235 ****               0 ****  **** 
     28 PP              244 ****               0 ****  **** 
     29 PP              253 ****               0 ****  **** 
     30 PP              262 ****               0 ****  **** 
     31 PP              271 ****               0 ****  **** 
     32 PP              280 ****               0 ****  **** 
     33 PP              289 ****               0 ****  **** 
     34 PP              298 ****               0 ****  **** 
     35 PP              307 ****               0 ****  **** 
     36 PP              316 ****               0 ****  **** 
     37 PP              325 ****               0 ****  **** 
     38 PP              334 ****               0 ****  **** 
     39 PP              343 ****               0 ****  **** 
     40 PP              352 ****               0 ****  **** 
     41 PP              361 ****               0 ****  **** 
     42 PP              370 ****               0 ****  **** 
     43 PP              379 ****               0 ****  **** 
     44 PP              388 ****               0 ****  **** 
     45 PP              397 ****               0 ****  **** 
     46 PP              406 ****               0 ****  **** 
     47 PP              415 ****               0 ****  **** 
     48 PP              424 ****               0 ****  **** 
     49 PP              433 ****               0 ****  **** 
     50 PP              442 ****               0 ****  **** 
     51 PP              451 ****               0 ****  **** 
     52 PP              460 ****               0 ****  **** 
     53 PP              469 ****               0 ****  **** 
     54 PP              478 ****               0 ****  **** 
     55 PP              487 ****               0 ****  **** 
     56 PP              496 ****               0 ****  **** 
     57 PP              505 ****               0 ****  **** 
     58 PP              514 ****               0 ****  **** 
     59 PP              523 ****               0 ****  **** 
     60 PP              532 ****               0 ****  **** 
     61 PP              541 ****               0 ****  **** 
     62 PP              550 ****               0 ****  **** 
     63 PP              559 ****               0 ****  **** 
     64 PP              568 ****               0 ****  **** 
     65 PP              577 ****               0 ****  **** 
     66 PP              586 ****               0 ****  **** 
     67 PP              595 ****               0 ****  **** 
     68 PP              604 ****               0 ****  **** 
     69 PP              613 ****               0 ****  **** 
     70 PP              622 ****               0 ****  **** 
     71 PP              631 ****               0 ****  **** 
     72 PP              640 ****               0 ****  **** 
     73 PP              649 ****               0 ****  **** 
     74 PP              658 ****               0 ****  **** 
     75 PP              667 ****               0 ****  **** 
     76 PP              676 ****               0 ****  **** 
     77 PP              685 ****               0 ****  **** 
     78 PP              694 ****               0 ****  **** 
     79 PP              703 ****               0 ****  **** 
     80 PP              712 ****               0 ****  **** 
     81 PP              721 ****               0 ****  **** 
     82 PP              730 ****               0 ****  **** 
     83 PP              739 ****               0 ****  **** 
     84 PP              748 ****               0 ****  **** 
     85 PP              757 ****               0 ****  **** 
     86 PP              766 ****               0 ****  **** 
     87 PP              775 ****               0 ****  **** 
     88 PP              784 ****               0 ****  **** 
     89 PP              793 ****               0 ****  **** 
     90 PP              802 ****               0 ****  **** 
     91 PP              811 ****               0 ****  **** 
     92 PP              820 ****               0 ****  **** 
     93 PP              829 ****               0 ****  **** 
     94 PP              838 ****               0 ****  **** 
     95 PP              847 ****               0 ****  **** 
     96 PP              856 ****               0 ****  **** 
     97 PP              865 ****               0 ****  **** 
     98 PP              874 ****               0 ****  **** 
     99 PP              883 ****               0 ****  **** 
    100 PP              892 ****               0 ****  **** 
    101 PP              901 ****               0 ****  **** 
    102 PP              910 ****               0 ****  **** 
    103 PP              919 ****               0 ****  **** 
    104 PP              928 ****               0 ****  **** 
    105 PP              937 ****               0 ****  **** 
    106 PP              946 ****               0 ****  **** 
    107 PP              955 ****               0 ****  **** 
    108 PP              964 ****               0 ****  **** 
    109 PP              973 ****               0 ****  **** 
    110 PP              982 ****               0 ****  **** 
    111 PP              991 ****               0 ****  **** 
    112 PP             1000 ****               0 ****  **** 
    113 PP             1009 ****               0 ****  **** 
    114 PP             1018 ****               0 ****  **** 
    115 PP             1027 ****               0 ****  **** 
    116 PP             1036 ****               0 ****  **** 
    117 PP             1045 ****               0 ****  **** 
    118 PP             1054 ****               0 ****  **** 
    119 PP             1063 ****               0 ****  **** 
    120 PP             1072 ****               0 ****  **** 
    121 PP             1081 ****               0 ****  **** 
    122 PP             1090 ****               0 ****  **** 
    123 PP             1099 ****               0 ****  **** 
    124 PP             1108 ****               0 ****  **** 
    125 PP             1117 ****               0 ****  **** 
    126 PP             1126 ****               0 ****  **** 
    127 PP             1135 ****               0 ****  **** 
    128 PP             1144 ****               0 ****  **** 
    129 PP             1153 ****               0 ****  **** 
    130 PP             1162 ****               0 ****  **** 
    131 PP             1171 ****               0 ****  **** 
    132 PP             1180 ****               0 ****  **** 
    133 PP             1189 ****               0 ****  **** 
    134 PP             1198 ****               0 ****  **** 
    135 PP             1207 ****               0 ****  **** 
    136 PP             1216 ****               0 ****  **** 
    137 PP             1225 ****               0 ****  **** 
    138 PP             1234 ****               0 ****  **** 
    139 PP             1243 ****               0 ****  **** 
    140 PP             1252 ****               0 ****  **** 
    141 PP             1261 ****               0 ****  **** 
    142 PP             1270 ****               0 ****  **** 
    143 PP             1279 ****               0 ****  **** 
    144 PP             1288 ****               0 ****  **** 
    145 PP             1297 ****               0 ****  **** 
    146 PP             1306 ****               0 ****  **** 
    147 PP             1315 ****               0 ****  **** 
    148 PP             1324 ****               0 ****  **** 
    149 PP             1333 ****               0 ****  **** 
    150 PP             1342 ****               0 ****  **** 
    151 PP             1351 ****               0 ****  **** 
    152 PP             1360 ****               0 ****  **** 
    153 PP             1369 ****               0 ****  **** 
    154 PP             1378 ****               0 ****  **** 
    155 PP             1387 ****               0 ****  **** 
    156 PP             1396 ****               0 ****  **** 
    157 PP             1405 ****               0 ****  **** 
    158 PP             1414 ****               0 ****  **** 
    159 PP             1423 ****               0 ****  **** 
    160 PP             1432 ****               0 ****  **** 
    161 PP             1441 ****               0 ****  **** 
    162 PP             1450 ****               0 ****  **** 
    163 PP             1459 ****               0 ****  **** 
    164 PP             1468 ****               0 ****  **** 
    165 PP             1477 ****               0 ****  **** 
    166 PP             1486 ****               0 ****  **** 
    167 PP             1495 ****               0 ****  **** 
    168 PP             1504 ****               0 ****  **** 
    169 PP             1513 ****               0 ****  **** 
    170 PP             1522 ****               0 ****  **** 
    171 PP             1531 ****               0 ****  **** 
    172 PP             1540 ****               0 ****  **** 
    173 PP             1549 ****               0 ****  **** 
    174 PP             1558 ****               0 ****  **** 
    175 PP             1567 ****               0 ****  **** 
    176 PP             1576 ****               0 ****  **** 
    177 PP             1585 ****               0 ****  **** 
    178 PP             1594 ****               0 ****  **** 
    179 PP             1603 ****               0 ****  **** 
    180 PP             1612 ****               0 ****  **** 
    181 PP             1621 ****               0 ****  **** 
    182 PP             1630 ****               0 ****  **** 
    183 PP             1639 ****               0 ****  **** 
    184 PP             1648 ****               0 ****  **** 
    185 PP             1657 ****               0 ****  **** 
    186 PP             1666 ****               0 ****  **** 
    187 PP             1675 ****               0 ****  **** 
    188 PP             1684 ****               0 ****  **** 
    189 PP             1693 ****               0 ****  **** 
    190 PP             1702 ****               0 ****  **** 
    191 PP             1711 ****               0 ****  **** 
    192 PP             1720 ****               0 ****  **** 
    193 PP             1729 ****               0 ****  **** 
    194 PP             1738 ****               0 ****  **** 
    195 PP             1747 ****               0 ****  **** 
    196 PP             1756 ****               0 ****  **** 
    197 PP             1765 ****               0 ****  **** 
    198 PP             1774 ****               0 ****  **** 
    199 PP             1783 ****               0 ****  **** 
    200 PP             1792 ****               0 ****  **** 
    201 PP             1801 ****               0 ****  **** 
    202 PP             1810 ****               0 ****  **** 
    203 PP             1819 ****               0 ****  **** 
    204 PP             1828 ****               0 ****  **** 
    205 PP             1837 ****               0 ****  **** 
    206 PP             1846 ****               0 ****  **** 
    207 PP             1855 ****               0 ****  **** 
    208 PP             1864 ****               0 ****  **** 
    209 PP             1873 ****               0 ****  **** 
    210 PP             1882 ****               0 ****  **** 
    211 PP             1891 ****               0 ****  **** 
    212 PP             1900 ****               0 ****  **** 
    213 PP             1909 ****               0 ****  **** 
    214 PP             1918 ****               0 ****  **** 
    215 PP             1927 ****               0 ****  **** 
    216 PP             1936 ****               0 ****  **** 
    217 PP             1945 ****               0 ****  **** 
    218 PP             1954 ****               0 ****  **** 
    219 PP             1963 ****               0 ****  **** 
    220 PP             1972 ****               0 ****  **** 
    221 PP             1981 ****               0 ****  **** 
    222 PP             1990 ****               0 ****  **** 
    223 PP             1999 ****               0 ****  **** 
    224 PP             2008 ****               0 ****  **** 
    225 PP             2017 ****               0 ****  **** 
    226 PP             2026 ****               0 ****  **** 
    227 PP             2035 ****               0 ****  **** 
    228 PP             2044 ****               0 ****  **** 
    229 PP             2053 ****               0 ****  **** 
    230 PP             2062 ****               0 ****  **** 
    231 PP             2071 ****               0 ****  **** 
    232 PP             2080 ****               0 ****  **** 
    233 PP             2089 ****               0 ****  **** 
    234 PP             2098 ****               0 ****  **** 
    235 PP             2107 ****               0 ****  **** 
    236 PP             2116 ****               0 ****  **** 
    237 PP             2125 ****               0 ****  **** 
    238 PP             2134 ****               0 ****  **** 
    239 PP             2143 ****               0 ****  **** 
    240 PP             2152 ****               0 ****  **** 
    241 PP             2161 ****               0 ****  **** 
    242 PP             2170 ****               0 ****  **** 
    243 PP             2179 ****               0 ****  **** 
    244 PP             2188 ****               0 ****  **** 
    245 PP             2197 ****               0 ****  **** 
    246 PP             2206 ****               0 ****  **** 
    247 PP             2215 ****               0 ****  **** 
    248 PP             2224 ****               0 ****  **** 
    249 PP             2233 ****               0 ****  **** 
    250 PP             2242 ****               0 ****  **** 
    251 PP             2251 ****               0 ****  **** 
    252 PP             2260 ****               0 ****  **** 
    253 PP             2269 ****               0 ****  **** 
    254 PP             2278 ****               0 ****  **** 
    255 PP             2287 ****               0 ****  **** 
    256 PP             2296 ****               0 ****  **** 
    257 PP             2305 ****               0 ****  **** 
    258 PP             2314 ****               0 ****  **** 
    259 PP             2323 ****               0 ****  **** 
    260 PP             2332 ****               0 ****  **** 
    261 PP             2341 ****               0 ****  **** 
    262 PP             2350 ****               0 ****  **** 
    263 PP             2359 ****               0 ****  **** 
    264 PP             2368 ****               0 ****  **** 
    265 PP             2377 ****               0 ****  **** 
    266 PP             2386 ****               0 ****  **** 
    267 PP             2395 ****               0 ****  **** 
    268 PP             2404 ****               0 ****  **** 
    269 PP             2413 ****               0 ****  **** 
    270 PP             2422 ****               0 ****  **** 
    271 PP             2431 ****               0 ****  **** 
    272 PP             2440 ****               0 ****  **** 
    273 PP             2449 ****               0 ****  **** 
    274 PP             2458 ****               0 ****  **** 
    275 PP             2467 ****               0 ****  **** 
    276 PP             2476 ****               0 ****  **** 
    277 PP             2485 ****               0 ****  **** 
    278 PP             2494 ****               0 ****  **** 
    279 PP             2503 ****               0 ****  **** 
    280 PP             2512 ****               0 ****  **** 
    281 PP             2521 ****               0 ****  **** 
    282 PP             2530 ****               0 ****  **** 
    283 PP             2539 ****               0 ****  **** 
    284 PP             2548 ****               0 ****  **** 
    285 PP             2557 ****               0 ****  **** 
    286 PP             2566 ****               0 ****  **** 
    287 PP             2575 ****               0 ****  **** 
    288 PP             2584 ****               0 ****  **** 
    289 PP             2593 ****               0 ****  **** 
    290 PP             2602 ****               0 ****  **** 
    291 PP             2611 ****               0 ****  **** 
    292 PP             2620 ****               0 ****  **** 
    293 PP             2629 ****               0 ****  **** 
    294 PP             2638 ****               0 ****  **** 
    295 PP             2647 ****               0 ****  **** 
    296 PP             2656 ****               0 ****  **** 
    297 PP             2665 ****               0 ****  **** 
    298 PP             2674 ****               0 ****  **** 
    299 PP             2683 ****               0 ****  **** 
    300 PP             2692 ****               0 ****  **** 
    301 PP             2701 ****               0 ****  **** 
    302 PP             2710 ****               0 ****  **** 
    303 PP             2719 ****               0 ****  **** 
    304 PP             2728 ****               0 ****  **** 
    305 PP             2737 ****               0 ****  **** 
    306 PP             2746 ****               0 ****  **** 
    307 PP             2755 ****               0 ****  **** 
    308 PP             2764 ****               0 ****  **** 
    309 PP             2773 ****               0 ****  **** 
    310 PP             2782 ****               0 ****  **** 
    311 PP             2791 ****               0 ****  **** 
    312 PP             2800 ****               0 ****  **** 
    313 PP             2809 ****               0 ****  **** 
    314 PP             2818 ****               0 ****  **** 
    315 PP             2827 ****               0 ****  **** 
    316 PP             2836 ****               0 ****  **** 
    317 PP             2845 ****               0 ****  **** 
    318 PP             2854 ****               0 ****  **** 
    319 PP             2863 ****               0 ****  **** 
    320 PP             2872 ****               0 ****  **** 
    321 PP             2881 ****               0 ****  **** 
    322 PP             2890 ****               0 ****  **** 
    323 PP             2899 ****               0 ****  **** 
    324 PP             2908 ****               0 ****  **** 
    325 PP             2917 ****               0 ****  **** 
    326 PP             2926 ****               0 ****  **** 
    327 PP             2935 ****               0 ****  **** 
    328 PP             2944 ****               0 ****  **** 
    329 PP             2953 ****               0 ****  **** 
    330 PP             2962 ****               0 ****  **** 
    331 PP             2971 ****               0 ****  **** 
    332 PP             2980 ****               0 ****  **** 
    333 PP             2989 ****               0 ****  **** 
    334 PP             2998 ****               0 ****  **** 
    335 PP             3007 ****               0 ****  **** 
    336 PP             3016 ****               0 ****  **** 
    337 PP             3025 ****               0 ****  **** 
    338 PP             3034 ****               0 ****  **** 
    339 PP             3043 ****               0 ****  **** 
    340 PP             3052 ****               0 ****  **** 
    341 PP             3061 ****               0 ****  **** 
    342 PP             3070 ****               0 ****  **** 
    343 PP             3079 ****               0 ****  **** 
    344 PP             3088 ****               0 ****  **** 
    345 PP             3097 ****               0 ****  **** 
    346 PP             3106 ****               0 ****  **** 
    347 PP             3115 ****               0 ****  **** 
    348 PP             3124 ****               0 ****  **** 
    349 PP             3133 ****               0 ****  **** 
    350 PP             3142 ****               0 ****  **** 
    351 PP             3151 ****               0 ****  **** 
    352 PP             3160 ****               0 ****  **** 
    353 PP             3169 ****               0 ****  **** 
    354 PP             3178 ****               0 ****  **** 
    355 PP             3187 ****               0 ****  **** 
    356 PP             3196 ****               0 ****  **** 
    357 PP             3205 ****               0 ****  **** 
    358 PP             3214 ****               0 ****  **** 
    359 PP             3223 ****               0 ****  **** 
    360 PP             3232 ****               0 ****  **** 
    361 PP             3241 ****               0 ****  **** 
    362 PP             3250 ****               0 ****  **** 
    363 PP             3259 ****               0 ****  **** 
    364 PP             3268 ****               0 ****  **** 
    365 PP             3277 ****               0 ****  **** 
    366 PP             3286 ****               0 ****  **** 
    367 PP             3295 ****               0 ****  **** 
    368 PP             3304 ****               0 ****  **** 
    369 PP             3313 ****               0 ****  **** 
    370 PP             3322 ****               0 ****  **** 
    371 PP             3331 ****               0 ****  **** 
    372 PP             3340 ****               0 ****  **** 
    373 PP             3349 ****               0 ****  **** 
    374 PP             3358 ****               0 ****  **** 
    375 PP             3367 ****               0 ****  **** 
    376 PP             3376 ****               0 ****  **** 
    377 PP             3385 ****               0 ****  **** 
    378 PP             3394 ****               0 ****  **** 
    379 PP             3403 ****               0 ****  **** 
    380 PP             3412 ****               0 ****  **** 
    381 PP             3421 ****               0 ****  **** 
    382 PP             3430 ****               0 ****  **** 
    383 PP             3439 ****               0 ****  **** 
    384 PP             3448 ****               0 ****  **** 
    385 PP             3457 ****               0 ****  **** 
    386 PP             3466 ****               0 ****  **** 
    387 PP             3475 ****               0 ****  **** 
    388 PP             3484 ****               0 ****  **** 
    389 PP             3493 ****               0 ****  **** 
    390 PP             3502 ****               0 ****  **** 
    391 PP             3511 ****               0 ****  **** 
    392 PP             3520 ****               0 ****  **** 
    393 PP             3529 ****               0 ****  **** 
    394 PP             3538 ****               0 ****  **** 
    395 PP             3547 ****               0 ****  **** 
    396 PP             3556 ****               0 ****  **** 
    397 PP             3565 ****               0 ****  **** 
    398 PP             3574 ****               0 ****  **** 
    399 PP             3583 ****               0 ****  **** 
    400 PP             3592 ****               0 ****  **** 
    401 PP             3601 ****               0 ****  **** 
    402 PP             3610 ****               0 ****  **** 
    403 PP             3619 ****               0 ****  **** 
    404 PP             3628 ****               0 ****  **** 
    405 PP             3637 ****               0 ****  **** 
    406 PP             3646 ****               0 ****  **** 
    407 PP             3655 ****               0 ****  **** 
    408 PP             3664 ****               0 ****  **** 
    409 PP             3673 ****               0 ****  **** 
    410 PP             3682 ****               0 ****  **** 
    411 PP             3691 ****               0 ****  **** 
    412 PP             3700 ****               0 ****  **** 
    413 PP             3709 ****               0 ****  **** 
    414 PP             3718 ****               0 ****  **** 
    415 PP             3727 ****               0 ****  **** 
    416 PP             3736 ****               0 ****  **** 
    417 PP             3745 ****               0 ****  **** 
    418 PP             3754 ****               0 ****  **** 
    419 PP             3763 ****               0 ****  **** 
    420 PP             3772 ****               0 ****  **** 
    421 PP             3781 ****               0 ****  **** 
    422 PP             3790 ****               0 ****  **** 
    423 PP             3799 ****               0 ****  **** 
    424 PP             3808 ****               0 ****  **** 
    425 PP             3817 ****               0 ****  **** 
    426 PP             3826 ****               0 ****  **** 
    427 PP             3835 ****               0 ****  **** 
    428 PP             3844 ****               0 ****  **** 
    429 PP             3853 ****               0 ****  **** 
    430 PP             3862 ****               0 ****  **** 
    431 PP             3871 ****               0 ****  **** 
    432 PP             3880 ****               0 ****  **** 
    433 PP             3889 ****               0 ****  **** 
    434 PP             3898 ****               0 ****  **** 
    435 PP             3907 ****               0 ****  **** 
    436 PP             3916 ****               0 ****  **** 
    437 PP             3925 ****               0 ****  **** 
    438 PP             3934 ****               0 ****  **** 
    439 PP             3943 ****               0 ****  **** 
    440 PP             3952 ****               0 ****  **** 
    441 PP             3961 ****               0 ****  **** 
    442 PP             3970 ****               0 ****  **** 
    443 PP             3979 ****               0 ****  **** 
    444 PP             3988 ****               0 ****  **** 
    445 PP             3997 ****               0 ****  **** 
    446 PP             4006 ****               0 ****  **** 
    447 PP             4015 ****               0 ****  **** 
    448 PP             4024 ****               0 ****  **** 
    449 PP             4033 ****               0 ****  **** 
    450 PP             4042 ****               0 ****  **** 
    451 PP             4051 ****               0 ****  **** 
    452 PP             4060 ****               0 ****  **** 
    453 PP             4069 ****               0 ****  **** 
    454 PP             4078 ****               0 ****  **** 
    455 PP             4087 ****               0 ****  **** 
    456 PP             4096 ****               0 ****  **** 
    457 PP             4105 ****               0 ****  **** 
    458 PP             4114 ****               0 ****  **** 
    459 PP             4123 ****               0 ****  **** 
    460 PP             4132 ****               0 ****  **** 
    461 PP             4141 ****               0 ****  **** 
    462 PP             4150 ****               0 ****  **** 
    463 PP             4159 ****               0 ****  **** 
    464 PP             4168 ****               0 ****  **** 
    465 PP             4177 ****               0 ****  **** 
    466 PP             4186 ****               0 ****  **** 
    467 PP             4195 ****               0 ****  **** 
    468 PP             4204 ****               0 ****  **** 
    469 PP             4213 ****               0 ****  **** 
    470 PP             4222 ****               0 ****  **** 
    471 PP             4231 ****               0 ****  **** 
    472 PP             4240 ****               0 ****  **** 
    473 PP             4249 ****               0 ****  **** 
    474 PP             4258 ****               0 ****  **** 
    475 PP             4267 ****               0 ****  **** 
    476 PP             4276 ****               0 ****  **** 
    477 PP             4285 ****               0 ****  **** 
    478 PP             4294 ****               0 ****  **** 
    479 PP             4303 ****               0 ****  **** 
    480 PP             4312 ****               0 ****  **** 
    481 PP             4321 ****               0 ****  **** 
    482 PP             4330 ****               0 ****  **** 
    483 PP             4339 ****               0 ****  **** 
    484 PP             4348 ****               0 ****  **** 
    485 PP             4357 ****               0 ****  **** 
    486 PP             4366 ****               0 ****  **** 
    487 PP             4375 ****               0 ****  **** 
    488 PP             4384 ****               0 ****  **** 
    489 PP             4393 ****               0 ****  **** 
    490 PP             4402 ****               0 ****  **** 
    491 PP             4411 ****               0 ****  **** 
    492 PP             4420 ****               0 ****  **** 
    493 PP             4429 ****               0 ****  **** 
    494 PP             4438 ****               0 ****  **** 
    495 PP             4447 ****               0 ****  **** 
    496 PP             4456 ****               0 ****  **** 
    497 PP             4465 ****               0 ****  **** 
    498 PP             4474 ****               0 ****  **** 
    499 PP             4483 ****               0 ****  **** 
    500 PP             4492 ****               0 ****  **** 
    501 PP             4501 ****               0 ****  **** 
    502 PP             4510 ****               0 ****  **** 
    503 PP             4519 ****               0 ****  **** 
    504 PP             4528 ****               0 ****  **** 
    505 PP             4537 ****               0 ****  **** 
    506 PP             4546 ****               0 ****  **** 
    507 PP             4555 ****               0 ****  **** 
    508 PP             4564 ****               0 ****  **** 
    509 PP             4573 ****               0 ****  **** 
    510 PP             4582 ****               0 ****  **** 
    511 PP             4591 ****               0 ****  **** 
    512 PP             4600 ****               0 ****  **** 
    513 PP             4609 ****               0 ****  **** 
    514 PP             4618 ****               0 ****  **** 
    515 PP             4627 ****               0 ****  **** 
    516 PP             4636 ****               0 ****  **** 
    517 PP             4645 ****               0 ****  **** 
    518 PP             4654 ****               0 ****  **** 
    519 PP             4663 ****               0 ****  **** 
    520 PP             4672 ****               0 ****  **** 
    521 PP             4681 ****               0 ****  **** 
    522 PP             4690 ****               0 ****  **** 
    523 PP             4699 ****               0 ****  **** 
    524 PP             4708 ****               0 ****  **** 
    525 PP             4717 ****               0 ****  **** 
    526 PP             4726 ****               0 ****  **** 
    527 PP             4735 ****               0 ****  **** 
    528 PP             4744 ****               0 ****  **** 
    529 PP             4753 ****               0 ****  **** 
    530 PP             4762 ****               0 ****  **** 
    531 PP             4771 ****               0 ****  **** 
    532 PP             4780 ****               0 ****  **** 
    533 PP             4789 ****               0 ****  **** 
    534 PP             4798 ****               0 ****  **** 
    535 PP             4807 ****               0 ****  **** 
    536 PP             4816 ****               0 ****  **** 
    537 PP             4825 ****               0 ****  **** 
    538 PP             4834 ****               0 ****  **** 
    539 PP             4843 ****               0 ****  **** 
    540 PP             4852 ****               0 ****  **** 
    541 PP             4861 ****               0 ****  **** 
    542 PP             4870 ****               0 ****  **** 
    543 PP             4879 ****               0 ****  **** 
    544 PP             4888 ****               0 ****  **** 
    545 PP             4897 ****               0 ****  **** 
    546 PP             4906 ****               0 ****  **** 
    547 PP             4915 ****               0 ****  **** 
    548 PP             4924 ****               0 ****  **** 
    549 PP             4933 ****               0 ****  **** 
    550 PP             4942 ****               0 ****  **** 
    551 PP             4951 ****               0 ****  **** 
    552 PP             4960 ****               0 ****  **** 
    553 PP             4969 ****               0 ****  **** 
    554 PP             4978 ****               0 ****  **** 
    555 PP             4987 ****               0 ****  **** 
    556 PP             4996 ****               0 ****  **** 
    557 PP             5005 ****               0 ****  **** 
    558 PP             5014 ****               0 ****  **** 
    559 PP             5023 ****               0 ****  **** 
    560 PP             5032 ****               0 ****  **** 
    561 PP             5041 ****               0 ****  **** 
    562 PP             5050 ****               0 ****  **** 
    563 PP             5059 ****               0 ****  **** 
    564 PP             5068 ****               0 ****  **** 
    565 PP             5077 ****               0 ****  **** 
    566 PP             5086 ****               0 ****  **** 
    567 PP             5095 ****               0 ****  **** 
    568 PP             5104 ****               0 ****  **** 
    569 PP             5113 ****               0 ****  **** 
    570 PP             5122 ****               0 ****  **** 
    571 PP             5131 ****               0 ****  **** 
    572 PP             5140 ****               0 ****  **** 
    573 PP             5149 ****               0 ****  **** 
    574 PP             5158 ****               0 ****  **** 
    575 PP             5167 ****               0 ****  **** 
    576 PP             5176 ****               0 ****  **** 
    577 PP             5185 ****               0 ****  **** 
    578 PP             5194 ****               0 ****  **** 
    579 PP             5203 ****               0 ****  **** 
    580 PP             5212 ****               0 ****  **** 
    581 PP             5221 ****               0 ****  **** 
    582 PP             5230 ****               0 ****  **** 
    583 PP             5239 ****               0 ****  **** 
    584 PP             5248 ****               0 ****  **** 
    585 PP             5257 ****               0 ****  **** 
    586 PP             5266 ****               0 ****  **** 
    587 PP             5275 ****               0 ****  **** 
    588 PP             5284 ****               0 ****  **** 
    589 PP             5293 ****               0 ****  **** 
    590 PP             5302 ****               0 ****  **** 
    591 PP             5311 ****               0 ****  **** 
    592 PP             5320 ****               0 ****  **** 
    593 PP             5329 ****               0 ****  **** 
    594 PP             5338 ****               0 ****  **** 
    595 PP             5347 ****               0 ****  **** 
    596 PP             5356 ****               0 ****  **** 
    597 PP             5365 ****               0 ****  **** 
    598 PP             5374 ****               0 ****  **** 
    599 PP             5383 ****               0 ****  **** 
    600 PP             5392 ****               0 ****  **** 
    601 PP             5401 ****               0 ****  **** 
    602 PP             5410 ****               0 ****  **** 
    603 PP             5419 ****               0 ****  **** 
    604 PP             5428 ****               0 ****  **** 
    605 PP             5437 ****               0 ****  **** 
    606 PP             5446 ****               0 ****  **** 
    607 PP             5455 ****               0 ****  **** 
    608 PP             5464 ****               0 ****  **** 
    609 PP             5473 ****               0 ****  **** 
    610 PP             5482 ****               0 ****  **** 
    611 PP             5491 ****               0 ****  **** 
    612 PP             5500 ****               0 ****  **** 
    613 PP             5509 ****               0 ****  **** 
    614 PP             5518 ****               0 ****  **** 
    615 PP             5527 ****               0 ****  **** 
    616 PP             5536 ****               0 ****  **** 
    617 PP             5545 ****               0 ****  **** 
    618 PP             5554 ****               0 ****  **** 
    619 PP             5563 ****               0 ****  **** 
    620 PP             5572 ****               0 ****  **** 
    621 PP             5581 ****               0 ****  **** 
    622 PP             5590 ****               0 ****  **** 
    623 PP             5599 ****               0 ****  **** 
    624 PP             5608 ****               0 ****  **** 
    625 PP             5617 ****               0 ****  **** 
    626 PP             5626 ****               0 ****  **** 
    627 PP             5635 ****               0 ****  **** 
    628 PP             5644 ****               0 ****  **** 
    629 PP             5653 ****               0 ****  **** 
    630 PP             5662 ****               0 ****  **** 
    631 PP             5671 ****               0 ****  **** 
    632 PP             5680 ****               0 ****  **** 
    633 PP             5689 ****               0 ****  **** 
    634 PP             5698 ****               0 ****  **** 
    635 PP             5707 ****               0 ****  **** 
    636 PP             5716 ****               0 ****  **** 
    637 PP             5725 ****               0 ****  **** 
    638 PP             5734 ****               0 ****  **** 
    639 PP             5743 ****               0 ****  **** 
    640 PP             5752 ****               0 ****  **** 
    641 PP             5761 ****               0 ****  **** 
    642 PP             5770 ****               0 ****  **** 
    643 PP             5779 ****               0 ****  **** 
    644 PP             5788 ****               0 ****  **** 
    645 PP             5797 ****               0 ****  **** 
    646 PP             5806 ****               0 ****  **** 
    647 PP             5815 ****               0 ****  **** 
    648 PP             5824 ****               0 ****  **** 
    649 PP             5833 ****               0 ****  **** 
    650 PP             5842 ****               0 ****  **** 
    651 PP             5851 ****               0 ****  **** 
    652 PP             5860 ****               0 ****  **** 
    653 PP             5869 ****               0 ****  **** 
    654 PP             5878 ****               0 ****  **** 
    655 PP             5887 ****               0 ****  **** 
    656 PP             5896 ****               0 ****  **** 
    657 PP             5905 ****               0 ****  **** 
    658 PP             5914 ****               0 ****  **** 
    659 PP             5923 ****               0 ****  **** 
    660 PP             5932 ****               0 ****  **** 
    661 PP             5941 ****               0 ****  **** 
    662 PP             5950 ****               0 ****  **** 
    663 PP             5959 ****               0 ****  **** 
    664 PP             5968 ****               0 ****  **** 
    665 PP             5977 ****               0 ****  **** 
    666 PP             5986 ****               0 ****  **** 
    667 PP             5995 ****               0 ****  **** 
    668 PP             6004 ****               0 ****  **** 
    669 PP             6013 ****               0 ****  **** 
    670 PP             6022 ****               0 ****  **** 
    671 PP             6031 ****               0 ****  **** 
    672 PP             6040 ****               0 ****  **** 
    673 PP             6049 ****               0 ****  **** 
    674 PP             6058 ****               0 ****  **** 
    675 PP             6067 ****               0 ****  **** 
    676 PP             6076 ****               0 ****  **** 
    677 PP             6085 ****               0 ****  **** 
    678 PP             6094 ****               0 ****  **** 
    679 PP             6103 ****               0 ****  **** 
    680 PP             6112 ****               0 ****  **** 
    681 PP             6121 ****               0 ****  **** 
    682 PP             6130 ****               0 ****  **** 
    683 PP             6139 ****               0 ****  **** 
    684 PP             6148 ****               0 ****  **** 
    685 PP             6157 ****               0 ****  **** 
    686 PP             6166 ****               0 ****  **** 
    687 PP             6175 ****               0 ****  **** 
    688 PP             6184 ****               0 ****  **** 
    689 PP             6193 ****               0 ****  **** 
    690 PP             6202 ****               0 ****  **** 
    691 PP             6211 ****               0 ****  **** 
    692 PP             6220 ****               0 ****  **** 
    693 PP             6229 ****               0 ****  **** 
    694 PP             6238 ****               0 ****  **** 
    695 PP             6247 ****               0 ****  **** 
    696 PP             6256 ****               0 ****  **** 
    697 PP             6265 ****               0 ****  **** 
    698 PP             6274 ****               0 ****  **** 
    699 PP             6283 ****               0 ****  **** 
    700 PP             6292 ****               0 ****  **** 
    701 PP             6301 ****               0 ****  **** 
    702 PP             6310 ****               0 ****  **** 
    703 PP             6319 ****               0 ****  **** 
    704 PP             6328 ****               0 ****  **** 
    705 PP             6337 ****               0 ****  **** 
    706 PP             6346 ****               0 ****  **** 
    707 PP             6355 ****               0 ****  **** 
    708 PP             6364 ****               0 ****  **** 
    709 PP             6373 ****               0 ****  **** 
    710 PP             6382 ****               0 ****  **** 
    711 PP             6391 ****               0 ****  **** 
    712 PP             6400 ****               0 ****  **** 
    713 PP             6409 ****               0 ****  **** 
    714 PP             6418 ****               0 ****  **** 
    715 PP             6427 ****               0 ****  **** 
    716 PP             6436 ****               0 ****  **** 
    717 PP             6445 ****               0 ****  **** 
    718 PP             6454 ****               0 ****  **** 
    719 PP             6463 ****               0 ****  **** 
    720 PP             6472 ****               0 ****  **** 
    721 PP             6481 ****               0 ****  **** 
    722 PP             6490 ****               0 ****  **** 
    723 PP             6499 ****               0 ****  **** 
    724 PP             6508 ****               0 ****  **** 
    725 PP             6517 ****               0 ****  **** 
    726 PP             6526 ****               0 ****  **** 
    727 PP             6535 ****               0 ****  **** 
    728 PP             6544 ****               0 ****  **** 
    729 PP             6553 ****               0 ****  **** 
    730 PP             6562 ****               0 ****  **** 
    731 PP             6571 ****               0 ****  **** 
    732 PP             6580 ****               0 ****  **** 
    733 PP             6589 ****               0 ****  **** 
    734 PP             6598 ****               0 ****  **** 
    735 PP             6607 ****               0 ****  **** 
    736 PP             6616 ****               0 ****  **** 
    737 PP             6625 ****               0 ****  **** 
    738 PP             6634 ****               0 ****  **** 
    739 PP             6643 ****               0 ****  **** 
    740 PP             6652 ****               0 ****  **** 
    741 PP             6661 ****               0 ****  **** 
    742 PP             6670 ****               0 ****  **** 
    743 PP             6679 ****               0 ****  **** 
    744 PP             6688 ****               0 ****  **** 
    745 PP             6697 ****               0 ****  **** 
    746 PP             6706 ****               0 ****  **** 
    747 PP             6715 ****               0 ****  **** 
    748 PP             6724 ****               0 ****  **** 
    749 PP             6733 ****               0 ****  **** 
    750 PP             6742 ****               0 ****  **** 
    751 PP             6751 ****               0 ****  **** 
    752 PP             6760 ****               0 ****  **** 
    753 PP             6769 ****               0 ****  **** 
    754 PP             6778 ****               0 ****  **** 
    755 PP             6787 ****               0 ****  **** 
    756 PP             6796 ****               0 ****  **** 
    757 PP             6805 ****               0 ****  **** 
    758 PP             6814 ****               0 ****  **** 
    759 PP             6823 ****               0 ****  **** 
    760 PP             6832 ****               0 ****  **** 
    761 PP             6841 ****               0 ****  **** 
    762 PP             6850 ****               0 ****  **** 
    763 PP             6859 ****               0 ****  **** 
    764 PP             6868 ****               0 ****  **** 
    765 PP             6877 ****               0 ****  **** 
    766 PP             6886 ****               0 ****  **** 
    767 PP             6895 ****               0 ****  **** 
    768 PP             6904 ****               0 ****  **** 
    769 PP             6913 ****               0 ****  **** 
    770 PP             6922 ****               0 ****  **** 
    771 PP             6931 ****               0 ****  **** 
    772 PP             6940 ****               0 ****  **** 
    773 PP             6949 ****               0 ****  **** 
    774 PP             6958 ****               0 ****  **** 
    775 PP             6967 ****               0 ****  **** 
    776 PP             6976 ****               0 ****  **** 
    777 PP             6985 ****               0 ****  **** 
    778 PP             6994 ****               0 ****  **** 
    779 PP             7003 ****               0 ****  **** 
    780 PP             7012 ****               0 ****  **** 
    781 PP             7021 ****               0 ****  **** 
    782 PP             7030 ****               0 ****  **** 
    783 PP             7039 ****               0 ****  **** 
    784 PP             7048 ****               0 ****  **** 
    785 PP             7057 ****               0 ****  **** 
    786 PP             7066 ****               0 ****  **** 
    787 PP             7075 ****               0 ****  **** 
    788 PP             7084 ****               0 ****  **** 
    789 PP             7093 ****               0 ****  **** 
    790 PP             7102 ****               0 ****  **** 
    791 PP             7111 ****               0 ****  **** 
    792 PP             7120 ****               0 ****  **** 
    793 PP             7129 ****               0 ****  **** 
    794 PP             7138 ****               0 ****  **** 
    795 PP             7147 ****               0 ****  **** 
    796 PP             7156 ****               0 ****  **** 
    797 PP             7165 ****               0 ****  **** 
    798 PP             7174 ****               0 ****  **** 
    799 PP             7183 ****               0 ****  **** 
    800 PP             7192 ****               0 ****  **** 
    801 PP             7201 ****               0 ****  **** 
    802 PP             7210 ****               0 ****  **** 
    803 PP             7219 ****               0 ****  **** 
    804 PP             7228 ****               0 ****  **** 
    805 PP             7237 ****               0 ****  **** 
    806 PP             7246 ****               0 ****  **** 
    807 PP             7255 ****               0 ****  **** 
    808 PP             7264 ****               0 ****  **** 
    809 PP             7273 ****               0 ****  **** 
    810 PP             7282 ****               0 ****  **** 
    811 PP             7291 ****               0 ****  **** 
    812 PP             7300 ****               0 ****  **** 
    813 PP             7309 ****               0 ****  **** 
    814 PP             7318 ****               0 ****  **** 
    815 PP             7327 ****               0 ****  **** 
    816 PP             7336 ****               0 ****  **** 
    817 PP             7345 ****               0 ****  **** 
    818 PP             7354 ****               0 ****  **** 
    819 PP             7363 ****               0 ****  **** 
    820 PP             7372 ****               0 ****  **** 
    821 PP             7381 ****               0 ****  **** 
    822 PP             7390 ****               0 ****  **** 
    823 PP             7399 ****               0 ****  **** 
    824 PP             7408 ****               0 ****  **** 
    825 PP             7417 ****               0 ****  **** 
    826 PP             7426 ****               0 ****  **** 
    827 PP             7435 ****               0 ****  **** 
    828 PP             7444 ****               0 ****  **** 
    829 PP             7453 ****               0 ****  **** 
    830 PP             7462 ****               0 ****  **** 
    831 PP             7471 ****               0 ****  **** 
    832 PP             7480 ****               0 ****  **** 
    833 PP             7489 ****               0 ****  **** 
    834 PP             7498 ****               0 ****  **** 
    835 PP             7507 ****               0 ****  **** 
    836 PP             7516 ****               0 ****  **** 
    837 PP             7525 ****               0 ****  **** 
    838 PP             7534 ****               0 ****  **** 
    839 PP             7543 ****               0 ****  **** 
    840 PP             7552 ****               0 ****  **** 
    841 PP             7561 ****               0 ****  **** 
    842 PP             7570 ****               0 ****  **** 
    843 PP             7579 ****               0 ****  **** 
    844 PP             7588 ****               0 ****  **** 
    845 PP             7597 ****               0 ****  **** 
    846 PP             7606 ****               0 ****  **** 
    847 PP             7615 ****               0 ****  **** 
    848 PP             7624 ****               0 ****  **** 
    849 PP             7633 ****               0 ****  **** 
    850 PP             7642 ****               0 ****  **** 
    851 PP             7651 ****               0 ****  **** 
    852 PP             7660 ****               0 ****  **** 
    853 PP             7669 ****               0 ****  **** 
    854 PP             7678 ****               0 ****  **** 
    855 PP             7687 ****               0 ****  **** 
    856 PP             7696 ****               0 ****  **** 
    857 PP             7705 ****               0 ****  **** 
    858 PP             7714 ****               0 ****  **** 
    859 PP             7723 ****               0 ****  **** 
    860 PP             7732 ****               0 ****  **** 
    861 PP             7741 ****               0 ****  **** 
    862 PP             7750 ****               0 ****  **** 
    863 PP             7759 ****               0 ****  **** 
    864 PP             7768 ****               0 ****  **** 
    865 PP             7777 ****               0 ****  **** 
    866 PP             7786 ****               0 ****  **** 
    867 PP             7795 ****               0 ****  **** 
    868 PP             7804 ****               0 ****  **** 
    869 PP             7813 ****               0 ****  **** 
    870 PP             7822 ****               0 ****  **** 
    871 PP             7831 ****               0 ****  **** 
    872 PP             7840 ****               0 ****  **** 
    873 PP             7849 ****               0 ****  **** 
    874 PP             7858 ****               0 ****  **** 
    875 PP             7867 ****               0 ****  **** 
    876 PP             7876 ****               0 ****  **** 
    877 PP             7885 ****               0 ****  **** 
    878 PP             7894 ****               0 ****  **** 
    879 PP             7903 ****               0 ****  **** 
    880 PP             7912 ****               0 ****  **** 
    881 PP             7921 ****               0 ****  **** 
    882 PP             7930 ****               0 ****  **** 
    883 PP             7939 ****               0 ****  **** 
    884 PP             7948 ****               0 ****  **** 
    885 PP             7957 ****               0 ****  **** 
    886 PP             7966 ****               0 ****  **** 
    887 PP             7975 ****               0 ****  **** 
    888 PP             7984 ****               0 ****  **** 
    889 PP             7993 ****               0 ****  **** 
    890 PP             8002 ****               0 ****  **** 
    891 PP             8011 ****               0 ****  **** 
    892 PP             8020 ****               0 ****  **** 
    893 PP             8029 ****               0 ****  **** 
    894 PP             8038 ****               0 ****  **** 
    895 PP             8047 ****               0 ****  **** 
    896 PP             8056 ****               0 ****  **** 
    897 PP             8065 ****               0 ****  **** 
    898 PP             8074 ****               0 ****  **** 
    899 PP             8083 ****               0 ****  **** 
    900 PP             8092 ****               0 ****  **** 
    901 PP             8101 ****               0 ****  **** 
    902 PP             8110 ****               0 ****  **** 
    903 PP             8119 ****               0 ****  **** 
    904 PP             8128 ****               0 ****  **** 
    905 PP             8137 ****               0 ****  **** 
    906 PP             8146 ****               0 ****  **** 
    907 PP             8155 ****               0 ****  **** 
    908 PP             8164 ****               0 ****  **** 
    909 PP             8173 ****               0 ****  **** 
    910 PP             8182 ****               0 ****  **** 
    911 PP             8191 ****               0 ****  **** 
    912 PP             8200 ****               0 ****  **** 
    913 PP             8209 ****               0 ****  **** 
    914 PP             8218 ****               0 ****  **** 
    915 PP             8227 ****               0 ****  **** 
    916 PP             8236 ****               0 ****  **** 
    917 PP             8245 ****               0 ****  **** 
    918 PP             8254 ****               0 ****  **** 
    919 PP             8263 ****               0 ****  **** 
    920 PP             8272 ****               0 ****  **** 
    921 PP             8281 ****               0 ****  **** 
    922 PP             8290 ****               0 ****  **** 
    923 PP             8299 ****               0 ****  **** 
    924 PP             8308 ****               0 ****  **** 
    925 PP             8317 ****               0 ****  **** 
    926 PP             8326 ****               0 ****  **** 
    927 PP             8335 ****               0 ****  **** 
    928 PP             8344 ****               0 ****  **** 
    929 PP             8353 ****               0 ****  **** 
    930 PP             8362 ****               0 ****  **** 
    931 PP             8371 ****               0 ****  **** 
    932 PP             8380 ****               0 ****  **** 
    933 PP             8389 ****               0 ****  **** 
    934 PP             8398 ****               0 ****  **** 
    935 PP             8407 ****               0 ****  **** 
    936 PP             8416 ****               0 ****  **** 
    937 PP             8425 ****               0 ****  **** 
    938 PP             8434 ****               0 ****  **** 
    939 PP             8443 ****               0 ****  **** 
    940 PP             8452 ****               0 ****  **** 
    941 PP             8461 ****               0 ****  **** 
    942 PP             8470 ****               0 ****  **** 
    943 PP             8479 ****               0 ****  **** 
    944 PP             8488 ****               0 ****  **** 
    945 PP             8497 ****               0 ****  **** 
    946 PP             8506 ****               0 ****  **** 
    947 PP             8515 ****               0 ****  **** 
    948 PP             8524 ****               0 ****  **** 
    949 PP             8533 ****               0 ****  **** 
    950 PP             8542 ****               0 ****  **** 
    951 PP             8551 ****               0 ****  **** 
    952 PP             8560 ****               0 ****  **** 
    953 PP             8569 ****               0 ****  **** 
    954 PP             8578 ****               0 ****  **** 
    955 PP             8587 ****               0 ****  **** 
    956 PP             8596 ****               0 ****  **** 
    957 PP             8605 ****               0 ****  **** 
    958 PP             8614 ****               0 ****  **** 
    959 PP             8623 ****               0 ****  **** 
    960 PP             8632 ****               0 ****  **** 
    961 PP             8641 ****               0 ****  **** 
    962 PP             8650 ****               0 ****  **** 
    963 PP             8659 ****               0 ****  **** 
    964 PP             8668 ****               0 ****  **** 
    965 PP             8677 ****               0 ****  **** 
    966 PP             8686 ****               0 ****  **** 
    967 PP             8695 ****               0 ****  **** 
    968 PP             8704 ****               0 ****  **** 
    969 PP             8713 ****               0 ****  **** 
    970 PP             8722 ****               0 ****  **** 
    971 PP             8731 ****               0 ****  **** 
    972 PP             8740 ****               0 ****  **** 
    973 PP             8749 ****               0 ****  **** 
    974 PP             8758 ****               0 ****  **** 
    975 PP             8767 ****               0 ****  **** 
    976 PP             8776 ****               0 ****  **** 
    977 PP             8785 ****               0 ****  **** 
    978 PP             8794 ****               0 ****  **** 
    979 PP             8803 ****               0 ****  **** 
    980 PP             8812 ****               0 ****  **** 
    981 PP             8821 ****               0 ****  **** 
    982 PP             8830 ****               0 ****  **** 
    983 PP             8839 ****               0 ****  **** 
    984 PP             8848 ****               0 ****  **** 
    985 PP             8857 ****               0 ****  **** 
    986 PP             8866 ****               0 ****  **** 
    987 PP             8875 ****               0 ****  **** 
    988 PP             8884 ****               0 ****  **** 
    989 PP             8893 ****               0 ****  **** 
    990 PP             8902 ****               0 ****  **** 
    991 PP             8911 ****               0 ****  **** 
    992 PP             8920 ****               0 ****  **** 
    993 PP             8929 ****               0 ****  **** 
    994 PP             8938 ****               0 ****  **** 
    995 PP             8947 ****               0 ****  **** 
    996 PP             8956 ****               0 ****  **** 
    997 PP             8965 ****               0 ****  **** 
    998 PP             8974 ****               0 ****  **** 
    999 PP             8983 ****               0 ****  **** 
   1000 PP             8992 ****               0 ****  **** 
   1001 PP             9001 ****               0 ****  **** 
   1002 PP             9010 ****               0 ****  **** 
   1003 PP             9019 ****               0 ****  **** 
   1004 PP             9028 ****               0 ****  **** 
   1005 PP             9037 ****               0 ****  **** 
   1006 PP             9046 ****               0 ****  **** 
   1007 PP             9055 ****               0 ****  **** 
   1008 PP             9064 ****               0 ****  **** 
   1009 PP             9073 ****               0 ****  **** 
   1010 PP             9082 ****               0 ****  **** 
   1011 PP             9091 ****               0 ****  **** 
   1012 PP             9100 ****               0 ****  **** 
   1013 PP             9109 ****               0 ****  **** 
   1014 PP             9118 ****               0 ****  **** 
   1015 PP             9127 ****               0 ****  **** 
   1016 PP             9136 ****               0 ****  **** 
   1017 PP             9145 ****               0 ****  **** 
   1018 PP             9154 ****               0 ****  **** 
   1019 PP             9163 ****               0 ****  **** 
   1020 PP             9172 ****               0 ****  **** 
   1021 PP             9181 ****               0 ****  **** 
   1022 PP             9190 ****               0 ****  **** 
   1023 PP             9199 ****               0 ****  **** 
   1024 PP             9208 ****               0 ****  **** 
   1025 PP             9217 ****               0 ****  **** 
   1026 PP             9226 ****               0 ****  **** 
   1027 PP             9235 ****               0 ****  **** 
   1028 PP             9244 ****               0 ****  **** 
   1029 PP             9253 ****               0 ****  **** 
   1030 PP             9262 ****               0 ****  **** 
   1031 PP             9271 ****               0 ****  **** 
   1032 PP             9280 ****               0 ****  **** 
   1033 PP             9289 ****               0 ****  **** 
   1034 PP             9298 ****               0 ****  **** 
   1035 PP             9307 ****               0 ****  **** 
   1036 PP             9316 ****               0 ****  **** 
   1037 PP             9325 ****               0 ****  **** 
   1038 PP             9334 ****               0 ****  **** 
   1039 PP             9343 ****               0 ****  **** 
   1040 PP             9352 ****               0 ****  **** 
   1041 PP             9361 ****               0 ****  **** 
   1042 PP             9370 ****               0 ****  **** 
   1043 PP             9379 ****               0 ****  **** 
   1044 PP             9388 ****               0 ****  **** 
   1045 PP             9397 ****               0 ****  **** 
   1046 PP             9406 ****               0 ****  **** 
   1047 PP             9415 ****               0 ****  **** 
   1048 PP             9424 ****               0 ****  **** 
   1049 PP             9433 ****               0 ****  **** 
   1050 PP             9442 ****               0 ****  **** 
   1051 PP             9451 ****               0 ****  **** 
   1052 PP             9460 ****               0 ****  **** 
   1053 PP             9469 ****               0 ****  **** 
   1054 PP             9478 ****               0 ****  **** 
   1055 PP             9487 ****               0 ****  **** 
   1056 PP             9496 ****               0 ****  **** 
   1057 PP             9505 ****               0 ****  **** 
   1058 PP             9514 ****               0 ****  **** 
   1059 PP             9523 ****               0 ****  **** 
   1060 PP             9532 ****               0 ****  **** 
   1061 PP             9541 ****               0 ****  **** 
   1062 PP             9550 ****               0 ****  **** 
   1063 PP             9559 ****               0 ****  **** 
   1064 PP             9568 ****               0 ****  **** 
   1065 PP             9577 ****               0 ****  **** 
   1066 PP             9586 ****               0 ****  **** 
   1067 PP             9595 ****               0 ****  **** 
   1068 PP             9604 ****               0 ****  **** 
   1069 PP             9613 ****               0 ****  **** 
   1070 PP             9622 ****               0 ****  **** 
   1071 PP             9631 ****               0 ****  **** 
   1072 PP             9640 ****               0 ****  **** 
   1073 PP             9649 ****               0 ****  **** 
   1074 PP             9658 ****               0 ****  **** 
   1075 PP             9667 ****               0 ****  **** 
   1076 PP             9676 ****               0 ****  **** 
   1077 PP             9685 ****               0 ****  **** 
   1078 PP             9694 ****               0 ****  **** 
   1079 PP             9703 ****               0 ****  **** 
   1080 PP             9712 ****               0 ****  **** 
   1081 PP             9721 ****               0 ****  **** 
   1082 PP             9730 ****               0 ****  **** 
   1083 PP             9739 ****               0 ****  **** 
   1084 PP             9748 ****               0 ****  **** 
   1085 PP             9757 ****               0 ****  **** 
   1086 PP             9766 ****               0 ****  **** 
   1087 PP             9775 ****               0 ****  **** 
   1088 PP             9784 ****               0 ****  **** 
   1089 PP             9793 ****               0 ****  **** 
   1090 PP             9802 ****               0 ****  **** 
   1091 PP             9811 ****               0 ****  **** 
   1092 PP             9820 ****               0 ****  **** 
   1093 PP             9829 ****               0 ****  **** 
   1094 PP             9838 ****               0 ****  **** 
   1095 PP             9847 ****               0 ****  **** 
   1096 PP             9856 ****               0 ****  **** 
   1097 PP             9865 ****               0 ****  **** 
   1098 PP             9874 ****               0 ****  **** 
   1099 PP             9883 ****               0 ****  **** 
   1100 PP             9892 ****               0 ****  **** 
   1101 PP             9901 ****               0 ****  **** 
   1102 PP             9910 ****               0 ****  **** 
   1103 PP             9919 ****               0 ****  **** 
   1104 PP             9928 ****               0 ****  **** 
   1105 PP             9937 ****               0 ****  **** 
   1106 PP             9946 ****               0 ****  **** 
   1107 PP             9955 ****               0 ****  **** 
   1108 PP             9964 ****               0 ****  **** 
   1109 PP             9973 ****               0 ****  **** 
   1110 PP             9982 ****               0 ****  **** 
   1111 PP             9991 ****               0 ****  **** 
   1112 PP            10000 ****               0 ****  **** 
   1113 PP            10009 ****               0 ****  **** 
   1114 PP            10018 ****               0 ****  **** 
   1115 PP            10027 ****               0 ****  **** 
   1116 PP            10036 ****               0 ****  **** 
   1117 PP            10045 ****               0 ****  **** 
   1118 PP            10054 ****               0 ****  **** 
   1119 PP            10063 ****               0 ****  **** 
   1120 PP            10072 ****               0 ****  **** 
   1121 PP            10081 ****               0 ****  **** 
   1122 PP            10090 ****               0 ****  **** 
   1123 PP            10099 ****               0 ****  **** 
   1124 PP            10108 ****               0 ****  **** 
   1125 PP            10117 ****               0 ****  **** 
   1126 PP            10126 ****               0 ****  **** 
   1127 PP            10135 ****               0 ****  **** 
   1128 PP            10144 ****               0 ****  **** 
   1129 PP            10153 ****               0 ****  **** 
   1130 PP            10162 ****               0 ****  **** 
   1131 PP            10171 ****               0 ****  **** 
   1132 PP            10180 ****               0 ****  **** 
   1133 PP            10189 ****               0 ****  **** 
   1134 PP            10198 ****               0 ****  **** 
   1135 PP            10207 ****               0 ****  **** 
   1136 PP            10216 ****               0 ****  **** 
   1137 PP            10225 ****               0 ****  **** 
   1138 PP            10234 ****               0 ****  **** 
   1139 PP            10243 ****               0 ****  **** 
   1140 PP            10252 ****               0 ****  **** 
   1141 PP            10261 ****               0 ****  **** 
   1142 PP            10270 ****               0 ****  **** 
   1143 PP            10279 ****               0 ****  **** 
   1144 PP            10288 ****               0 ****  **** 
   1145 PP            10297 ****               0 ****  **** 
   1146 PP            10306 ****               0 ****  **** 
   1147 PP            10315 ****               0 ****  **** 
   1148 PP            10324 ****               0 ****  **** 
   1149 PP            10333 ****               0 ****  **** 
   1150 PP            10342 ****               0 ****  **** 
   1151 PP            10351 ****               0 ****  **** 
   1152 PP            10360 ****               0 ****  **** 
   1153 PP            10369 ****               0 ****  **** 
   1154 PP            10378 ****               0 ****  **** 
   1155 PP            10387 ****               0 ****  **** 
   1156 PP            10396 ****               0 ****  **** 
   1157 PP            10405 ****               0 ****  **** 
   1158 PP            10414 ****               0 ****  **** 
   1159 PP            10423 ****               0 ****  **** 
   1160 PP            10432 ****               0 ****  **** 
   1161 PP            10441 ****               0 ****  **** 
   1162 PP            10450 ****               0 ****  **** 
   1163 PP            10459 ****               0 ****  **** 
   1164 PP            10468 ****               0 ****  **** 
   1165 PP            10477 ****               0 ****  **** 
   1166 PP            10486 ****               0 ****  **** 
   1167 PP            10495 ****               0 ****  **** 
   1168 PP            10504 ****               0 ****  **** 
   1169 PP            10513 ****               0 ****  **** 
   1170 PP            10522 ****               0 ****  **** 
   1171 PP            10531 ****               0 ****  **** 
   1172 PP            10540 ****               0 ****  **** 
   1173 PP            10549 ****               0 ****  **** 
   1174 PP            10558 ****               0 ****  **** 
   1175 PP            10567 ****               0 ****  **** 
   1176 PP            10576 ****               0 ****  **** 
   1177 PP            10585 ****               0 ****  **** 
   1178 PP            10594 ****               0 ****  **** 
   1179 PP            10603 ****               0 ****  **** 
   1180 PP            10612 ****               0 ****  **** 
   1181 PP            10621 ****               0 ****  **** 
   1182 PP            10630 ****               0 ****  **** 
   1183 PP            10639 ****               0 ****  **** 
   1184 PP            10648 ****               0 ****  **** 
   1185 PP            10657 ****               0 ****  **** 
   1186 PP            10666 ****               0 ****  **** 
   1187 PP            10675 ****               0 ****  **** 
   1188 PP            10684 ****               0 ****  **** 
   1189 PP            10693 ****               0 ****  **** 
   1190 PP            10702 ****               0 ****  **** 
   1191 PP            10711 ****               0 ****  **** 
   1192 PP            10720 ****               0 ****  **** 
   1193 PP            10729 ****               0 ****  **** 
   1194 PP            10738 ****               0 ****  **** 
   1195 PP            10747 ****               0 ****  **** 
   1196 PP            10756 ****               0 ****  **** 
   1197 PP            10765 ****               0 ****  **** 
   1198 PP            10774 ****               0 ****  **** 
   1199 PP            10783 ****               0 ****  **** 
   1200 PP            10792 ****               0 ****  **** 
   1201 PP            10801 ****               0 ****  **** 
   1202 PP            10810 ****               0 ****  **** 
   1203 PP            10819 ****               0 ****  **** 
   1204 PP            10828 ****               0 ****  **** 
   1205 PP            10837 ****               0 ****  **** 
   1206 PP            10846 ****               0 ****  **** 
   1207 PP            10855 ****               0 ****  **** 
   1208 PP            10864 ****               0 ****  **** 
   1209 PP            10873 ****               0 ****  **** 
   1210 PP            10882 ****               0 ****  **** 
   1211 PP            10891 ****               0 ****  **** 
   1212 PP            10900 ****               0 ****  **** 
   1213 PP            10909 ****               0 ****  **** 
   1214 PP            10918 ****               0 ****  **** 
   1215 PP            10927 ****               0 ****  **** 
   1216 PP            10936 ****               0 ****  **** 
   1217 PP            10945 ****               0 ****  **** 
   1218 PP            10954 ****               0 ****  **** 
   1219 PP            10963 ****               0 ****  **** 
   1220 PP            10972 ****               0 ****  **** 
   1221 PP            10981 ****               0 ****  **** 
   1222 PP            10990 ****               0 ****  **** 
   1223 PP            10999 ****               0 ****  **** 
   1224 PP            11008 ****               0 ****  **** 
   1225 PP            11017 ****               0 ****  **** 
   1226 PP            11026 ****               0 ****  **** 
   1227 PP            11035 ****               0 ****  **** 
   1228 PP            11044 ****               0 ****  **** 
   1229 PP            11053 ****               0 ****  **** 
   1230 PP            11062 ****               0 ****  **** 
   1231 PP            11071 ****               0 ****  **** 
   1232 PP            11080 ****               0 ****  **** 
   1233 PP            11089 ****               0 ****  **** 
   1234 PP            11098 ****               0 ****  **** 
   1235 PP            11107 ****               0 ****  **** 
   1236 PP            11116 ****               0 ****  **** 
   1237 PP            11125 ****               0 ****  **** 
   1238 PP            11134 ****               0 ****  **** 
   1239 PP            11143 ****               0 ****  **** 
   1240 PP            11152 ****               0 ****  **** 
   1241 PP            11161 ****               0 ****  **** 
   1242 PP            11170 ****               0 ****  **** 
   1243 PP            11179 ****               0 ****  **** 
   1244 PP            11188 ****               0 ****  **** 
   1245 PP            11197 ****               0 ****  **** 
   1246 PP            11206 ****               0 ****  **** 
   1247 PP            11215 ****               0 ****  **** 
   1248 PP            11224 ****               0 ****  **** 
   1249 PP            11233 ****               0 ****  **** 
   1250 PP            11242 ****               0 ****  **** 
   1251 PP            11251 ****               0 ****  **** 
   1252 PP            11260 ****               0 ****  **** 
   1253 PP            11269 ****               0 ****  **** 
   1254 PP            11278 ****               0 ****  **** 
   1255 PP            11287 ****               0 ****  **** 
   1256 PP            11296 ****               0 ****  **** 
   1257 PP            11305 ****               0 ****  **** 
   1258 PP            11314 ****               0 ****  **** 
   1259 PP            11323 ****               0 ****  **** 
   1260 PP            11332 ****               0 ****  **** 
   1261 PP            11341 ****               0 ****  **** 
   1262 PP            11350 ****               0 ****  **** 
   1263 PP            11359 ****               0 ****  **** 
   1264 PP            11368 ****               0 ****  **** 
   1265 PP            11377 ****               0 ****  **** 
   1266 PP            11386 ****               0 ****  **** 
   1267 PP            11395 ****               0 ****  **** 
   1268 PP            11404 ****               0 ****  **** 
   1269 PP            11413 ****               0 ****  **** 
   1270 PP            11422 ****               0 ****  **** 
   1271 PP            11431 ****               0 ****  **** 
   1272 PP            11440 ****               0 ****  **** 
   1273 PP            11449 ****               0 ****  **** 
   1274 PP            11458 ****               0 ****  **** 
   1275 PP            11467 ****               0 ****  **** 
   1276 PP            11476 ****               0 ****  **** 
   1277 PP            11485 ****               0 ****  **** 
   1278 PP            11494 ****               0 ****  **** 
   1279 PP            11503 ****               0 ****  **** 
   1280 PP            11512 ****               0 ****  **** 
   1281 PP            11521 ****               0 ****  **** 
   1282 PP            11530 ****               0 ****  **** 
   1283 PP            11539 ****               0 ****  **** 
   1284 PP            11548 ****               0 ****  **** 
   1285 PP            11557 ****               0 ****  **** 
   1286 PP            11566 ****               0 ****  **** 
   1287 PP            11575 ****               0 ****  **** 
   1288 PP            11584 ****               0 ****  **** 
   1289 PP            11593 ****               0 ****  **** 
   1290 PP            11602 ****               0 ****  **** 
   1291 PP            11611 ****               0 ****  **** 
   1292 PP            11620 ****               0 ****  **** 
   1293 PP            11629 ****               0 ****  **** 
   1294 PP            11638 ****               0 ****  **** 
   1295 PP            11647 ****               0 ****  **** 
   1296 PP            11656 ****               0 ****  **** 
   1297 PP            11665 ****               0 ****  **** 
   1298 PP            11674 ****               0 ****  **** 
   1299 PP            11683 ****               0 ****  **** 
   1300 PP            11692 ****               0 ****  **** 
   1301 PP            11701 ****               0 ****  **** 
   1302 PP            11710 ****               0 ****  **** 
   1303 PP            11719 ****               0 ****  **** 
   1304 PP            11728 ****               0 ****  **** 
   1305 PP            11737 ****               0 ****  **** 
   1306 PP            11746 ****               0 ****  **** 
   1307 PP            11755 ****               0 ****  **** 
   1308 PP            11764 ****               0 ****  **** 
   1309 PP            11773 ****               0 ****  **** 
   1310 PP            11782 ****               0 ****  **** 
   1311 PP            11791 ****               0 ****  **** 
   1312 PP            11800 ****               0 ****  **** 
   1313 PP            11809 ****               0 ****  **** 
   1314 PP            11818 ****               0 ****  **** 
   1315 PP            11827 ****               0 ****  **** 
   1316 PP            11836 ****               0 ****  **** 
   1317 PP            11845 ****               0 ****  **** 
   1318 PP            11854 ****               0 ****  **** 
   1319 PP            11863 ****               0 ****  **** 
   1320 PP            11872 ****               0 ****  **** 
   1321 PP            11881 ****               0 ****  **** 
   1322 PP            11890 ****               0 ****  **** 
   1323 PP            11899 ****               0 ****  **** 
   1324 PP            11908 ****               0 ****  **** 
   1325 PP            11917 ****               0 ****  **** 
   1326 PP            11926 ****               0 ****  **** 
   1327 PP            11935 ****               0 ****  **** 
   1328 PP            11944 ****               0 ****  **** 
   1329 PP            11953 ****               0 ****  **** 
   1330 PP            11962 ****               0 ****  **** 
   1331 PP            11971 ****               0 ****  **** 
   1332 PP            11980 ****               0 ****  **** 
   1333 PP            11989 ****               0 ****  **** 
   1334 PP            11998 ****               0 ****  **** 
   1335 PP            12007 ****               0 ****  **** 
   1336 PP            12016 ****               0 ****  **** 
   1337 PP            12025 ****               0 ****  **** 
   1338 PP            12034 ****               0 ****  **** 
   1339 PP            12043 ****               0 ****  **** 
   1340 PP            12052 ****               0 ****  **** 
   1341 PP            12061 ****               0 ****  **** 
   1342 PP            12070 ****               0 ****  **** 
   1343 PP            12079 ****               0 ****  **** 
   1344 PP            12088 ****               0 ****  **** 
   1345 PP            12097 ****               0 ****  **** 
   1346 PP            12106 ****               0 ****  **** 
   1347 PP            12115 ****               0 ****  **** 
   1348 PP            12124 ****               0 ****  **** 
   1349 PP            12133 ****               0 ****  **** 
   1350 PP            12142 ****               0 ****  **** 
   1351 PP            12151 ****               0 ****  **** 
   1352 PP            12160 ****               0 ****  **** 
   1353 PP            12169 ****               0 ****  **** 
   1354 PP            12178 ****               0 ****  **** 
   1355 PP            12187 ****               0 ****  **** 
   1356 PP            12196 ****               0 ****  **** 
   1357 PP            12205 ****               0 ****  **** 
   1358 PP            12214 ****               0 ****  **** 
   1359 PP            12223 ****               0 ****  **** 
   1360 PP            12232 ****               0 ****  **** 
   1361 PP            12241 ****               0 ****  **** 
   1362 PP            12250 ****               0 ****  **** 
   1363 PP            12259 ****               0 ****  **** 
   1364 PP            12268 ****               0 ****  **** 
   1365 PP            12277 ****               0 ****  **** 
   1366 PP            12286 ****               0 ****  **** 
   1367 PP            12295 ****               0 ****  **** 
   1368 PP            12304 ****               0 ****  **** 
   1369 PP            12313 ****               0 ****  **** 
   1370 PP            12322 ****               0 ****  **** 
   1371 PP            12331 ****               0 ****  **** 
   1372 PP            12340 ****               0 ****  **** 
   1373 PP            12349 ****               0 ****  **** 
   1374 PP            12358 ****               0 ****  **** 
   1375 PP            12367 ****               0 ****  **** 
   1376 PP            12376 ****               0 ****  **** 
   1377 PP            12385 ****               0 ****  **** 
   1378 PP            12394 ****               0 ****  **** 
   1379 PP            12403 ****               0 ****  **** 
   1380 PP            12412 ****               0 ****  **** 
   1381 PP            12421 ****               0 ****  **** 
   1382 PP            12430 ****               0 ****  **** 
   1383 PP            12439 ****               0 ****  **** 
   1384 PP            12448 ****               0 ****  **** 
   1385 PP            12457 ****               0 ****  **** 
   1386 PP            12466 ****               0 ****  **** 
   1387 PP            12475 ****               0 ****  **** 
   1388 PP            12484 ****               0 ****  **** 
   1389 PP            12493 ****               0 ****  **** 
   1390 PP            12502 ****               0 ****  **** 
   1391 PP            12511 ****               0 ****  **** 
   1392 PP            12520 ****               0 ****  **** 
   1393 PP            12529 ****               0 ****  **** 
   1394 PP            12538 ****               0 ****  **** 
   1395 PP            12547 ****               0 ****  **** 
   1396 PP            12556 ****               0 ****  **** 
   1397 PP            12565 ****               0 ****  **** 
   1398 PP            12574 ****               0 ****  **** 
   1399 PP            12583 ****               0 ****  **** 
   1400 PP            12592 ****               0 ****  **** 
   1401 PP            12601 ****               0 ****  **** 
   1402 PP            12610 ****               0 ****  **** 
   1403 PP            12619 ****               0 ****  **** 
   1404 PP            12628 ****               0 ****  **** 
   1405 PP            12637 ****               0 ****  **** 
   1406 PP            12646 ****               0 ****  **** 
   1407 PP            12655 ****               0 ****  **** 
   1408 PP            12664 ****               0 ****  **** 
   1409 PP            12673 ****               0 ****  **** 
   1410 PP            12682 ****               0 ****  **** 
   1411 PP            12691 ****               0 ****  **** 
   1412 PP            12700 ****               0 ****  **** 
   1413 PP            12709 ****               0 ****  **** 
   1414 PP            12718 ****               0 ****  **** 
   1415 PP            12727 ****               0 ****  **** 
   1416 PP            12736 ****               0 ****  **** 
   1417 PP            12745 ****               0 ****  **** 
   1418 PP            12754 ****               0 ****  **** 
   1419 PP            12763 ****               0 ****  **** 
   1420 PP            12772 ****               0 ****  **** 
   1421 PP            12781 ****               0 ****  **** 
   1422 PP            12790 ****               0 ****  **** 
   1423 PP            12799 ****               0 ****  **** 
   1424 PP            12808 ****               0 ****  **** 
   1425 PP            12817 ****               0 ****  **** 
   1426 PP            12826 ****               0 ****  **** 
   1427 PP            12835 ****               0 ****  **** 
   1428 PP            12844 ****               0 ****  **** 
   1429 PP            12853 ****               0 ****  **** 
   1430 PP            12862 ****               0 ****  **** 
   1431 PP            12871 ****               0 ****  **** 
   1432 PP            12880 ****               0 ****  **** 
   1433 PP            12889 ****               0 ****  **** 
   1434 PP            12898 ****               0 ****  **** 
   1435 PP            12907 ****               0 ****  **** 
   1436 PP            12916 ****               0 ****  **** 
   1437 PP            12925 ****               0 ****  **** 
   1438 PP            12934 ****               0 ****  **** 
   1439 PP            12943 ****               0 ****  **** 
   1440 PP            12952 ****               0 ****  **** 
   1441 PP            12961 ****               0 ****  **** 
   1442 PP            12970 ****               0 ****  **** 
   1443 PP            12979 ****               0 ****  **** 
   1444 PP            12988 ****               0 ****  **** 
   1445 PP            12997 ****               0 ****  **** 
   1446 PP            13006 ****               0 ****  **** 
   1447 PP            13015 ****               0 ****  **** 
   1448 PP            13024 ****               0 ****  **** 
   1449 PP            13033 ****               0 ****  **** 
   1450 PP            13042 ****               0 ****  **** 
   1451 PP            13051 ****               0 ****  **** 
   1452 PP            13060 ****               0 ****  **** 
   1453 PP            13069 ****               0 ****  **** 
   1454 PP            13078 ****               0 ****  **** 
   1455 PP            13087 ****               0 ****  **** 
   1456 PP            13096 ****               0 ****  **** 
   1457 PP            13105 ****               0 ****  **** 
   1458 PP            13114 ****               0 ****  **** 
   1459 PP            13123 ****               0 ****  **** 
   1460 PP            13132 ****               0 ****  **** 
   1461 PP            13141 ****               0 ****  **** 
   1462 PP            13150 ****               0 ****  **** 
   1463 PP            13159 ****               0 ****  **** 
   1464 PP            13168 ****               0 ****  **** 
   1465 PP            13177 ****               0 ****  **** 
   1466 PP            13186 ****               0 ****  **** 
   1467 PP            13195 ****               0 ****  **** 
   1468 PP            13204 ****               0 ****  **** 
   1469 PP            13213 ****               0 ****  **** 
   1470 PP            13222 ****               0 ****  **** 
   1471 PP            13231 ****               0 ****  **** 
   1472 PP            13240 ****               0 ****  **** 
   1473 PP            13249 ****               0 ****  **** 
   1474 PP            13258 ****               0 ****  **** 
   1475 PP            13267 ****               0 ****  **** 
   1476 PP            13276 ****               0 ****  **** 
   1477 PP            13285 ****               0 ****  **** 
   1478 PP            13294 ****               0 ****  **** 
   1479 PP            13303 ****               0 ****  **** 
   1480 PP            13312 ****               0 ****  **** 
   1481 PP            13321 ****               0 ****  **** 
   1482 PP            13330 ****               0 ****  **** 
   1483 PP            13339 ****               0 ****  **** 
   1484 PP            13348 ****               0 ****  **** 
   1485 PP            13357 ****               0 ****  **** 
   1486 PP            13366 ****               0 ****  **** 
   1487 PP            13375 ****               0 ****  **** 
   1488 PP            13384 ****               0 ****  **** 
   1489 PP            13393 ****               0 ****  **** 
   1490 PP            13402 ****               0 ****  **** 
   1491 PP            13411 ****               0 ****  **** 
   1492 PP            13420 ****               0 ****  **** 
   1493 PP            13429 ****               0 ****  **** 
   1494 PP            13438 ****               0 ****  **** 
   1495 PP            13447 ****               0 ****  **** 
   1496 PP            13456 ****               0 ****  **** 
   1497 PP            13465 ****               0 ****  **** 
   1498 PP            13474 ****               0 ****  **** 
   1499 PP            13483 ****               0 ****  **** 
   1500 PP            13492 ****               0 ****  **** 
   1501 PP            13501 ****               0 ****  **** 
   1502 PP            13510 ****               0 ****  **** 
   1503 PP            13519 ****               0 ****  **** 
   1504 PP            13528 ****               0 ****  **** 
   1505 PP            13537 ****               0 ****  **** 
   1506 PP            13546 ****               0 ****  **** 
   1507 PP            13555 ****               0 ****  **** 
   1508 PP            13564 ****               0 ****  **** 
   1509 PP            13573 ****               0 ****  **** 
   1510 PP            13582 ****               0 ****  **** 
   1511 PP            13591 ****               0 ****  **** 
   1512 PP            13600 ****               0 ****  **** 
   1513 PP            13609 ****               0 ****  **** 
   1514 PP            13618 ****               0 ****  **** 
   1515 PP            13627 ****               0 ****  **** 
   1516 PP            13636 ****               0 ****  **** 
   1517 PP            13645 ****               0 ****  **** 
   1518 PP            13654 ****               0 ****  **** 
   1519 PP            13663 ****               0 ****  **** 
   1520 PP            13672 ****               0 ****  **** 
   1521 PP            13681 ****               0 ****  **** 
   1522 PP            13690 ****               0 ****  **** 
   1523 PP            13699 ****               0 ****  **** 
   1524 PP            13708 ****               0 ****  **** 
   1525 PP            13717 ****               0 ****  **** 
   1526 PP            13726 ****               0 ****  **** 
   1527 PP            13735 ****               0 ****  **** 
   1528 PP            13744 ****               0 ****  **** 
   1529 PP            13753 ****               0 ****  **** 
   1530 PP            13762 ****               0 ****  **** 
   1531 PP            13771 ****               0 ****  **** 
   1532 PP            13780 ****               0 ****  **** 
   1533 PP            13789 ****               0 ****  **** 
   1534 PP            13798 ****               0 ****  **** 
   1535 PP            13807 ****               0 ****  **** 
   1536 PP            13816 ****               0 ****  **** 
   1537 PP            13825 ****               0 ****  **** 
   1538 PP            13834 ****               0 ****  **** 
   1539 PP            13843 ****               0 ****  **** 
   1540 PP            13852 ****               0 ****  **** 
   1541 PP            13861 ****               0 ****  **** 
   1542 PP            13870 ****               0 ****  **** 
   1543 PP            13879 ****               0 ****  **** 
   1544 PP            13888 ****               0 ****  **** 
   1545 PP            13897 ****               0 ****  **** 
   1546 PP            13906 ****               0 ****  **** 
   1547 PP            13915 ****               0 ****  **** 
   1548 PP            13924 ****               0 ****  **** 
   1549 PP            13933 ****               0 ****  **** 
   1550 PP            13942 ****               0 ****  **** 
   1551 PP            13951 ****               0 ****  **** 
   1552 PP            13960 ****               0 ****  **** 
   1553 PP            13969 ****               0 ****  **** 
   1554 PP            13978 ****               0 ****  **** 
   1555 PP            13987 ****               0 ****  **** 
   1556 PP            13996 ****               0 ****  **** 
   1557 PP            14005 ****               0 ****  **** 
   1558 PP            14014 ****               0 ****  **** 
   1559 PP            14023 ****               0 ****  **** 
   1560 PP            14032 ****               0 ****  **** 
   1561 PP            14041 ****               0 ****  **** 
   1562 PP            14050 ****               0 ****  **** 
   1563 PP            14059 ****               0 ****  **** 
   1564 PP            14068 ****               0 ****  **** 
   1565 PP            14077 ****               0 ****  **** 
   1566 PP            14086 ****               0 ****  **** 
   1567 PP            14095 ****               0 ****  **** 
   1568 PP            14104 ****               0 ****  **** 
   1569 PP            14113 ****               0 ****  **** 
   1570 PP            14122 ****               0 ****  **** 
   1571 PP            14131 ****               0 ****  **** 
   1572 PP            14140 ****               0 ****  **** 
   1573 PP            14149 ****               0 ****  **** 
   1574 PP            14158 ****               0 ****  **** 
   1575 PP            14167 ****               0 ****  **** 
   1576 PP            14176 ****               0 ****  **** 
   1577 PP            14185 ****               0 ****  **** 
   1578 PP            14194 ****               0 ****  **** 
   1579 PP            14203 ****               0 ****  **** 
   1580 PP            14212 ****               0 ****  **** 
   1581 PP            14221 ****               0 ****  **** 
   1582 PP            14230 ****               0 ****  **** 
   1583 PP            14239 ****               0 ****  **** 
   1584 PP            14248 ****               0 ****  **** 
   1585 PP            14257 ****               0 ****  **** 
   1586 PP            14266 ****               0 ****  **** 
   1587 PP            14275 ****               0 ****  **** 
   1588 PP            14284 ****               0 ****  **** 
   1589 PP            14293 ****               0 ****  **** 
   1590 PP            14302 ****               0 ****  **** 
   1591 PP            14311 ****               0 ****  **** 
   1592 PP            14320 ****               0 ****  **** 
   1593 PP            14329 ****               0 ****  **** 
   1594 PP            14338 ****               0 ****  **** 
   1595 PP            14347 ****               0 ****  **** 
   1596 PP            14356 ****               0 ****  **** 
   1597 PP            14365 ****               0 ****  **** 
   1598 PP            14374 ****               0 ****  **** 
   1599 PP            14383 ****               0 ****  **** 
   1600 PP            14392 ****               0 ****  **** 
   1601 PP            14401 ****               0 ****  **** 
   1602 PP            14410 ****               0 ****  **** 
   1603 PP            14419 ****               0 ****  **** 
   1604 PP            14428 ****               0 ****  **** 
   1605 PP            14437 ****               0 ****  **** 
   1606 PP            14446 ****               0 ****  **** 
   1607 PP            14455 ****               0 ****  **** 
   1608 PP            14464 ****               0 ****  **** 
   1609 PP            14473 ****               0 ****  **** 
   1610 PP            14482 ****               0 ****  **** 
   1611 PP            14491 ****               0 ****  **** 
   1612 PP            14500 ****               0 ****  **** 
   1613 PP            14509 ****               0 ****  **** 
   1614 PP            14518 ****               0 ****  **** 
   1615 PP            14527 ****               0 ****  **** 
   1616 PP            14536 ****               0 ****  **** 
   1617 PP            14545 ****               0 ****  **** 
   1618 PP            14554 ****               0 ****  **** 
   1619 PP            14563 ****               0 ****  **** 
   1620 PP            14572 ****               0 ****  **** 
   1621 PP            14581 ****               0 ****  **** 
   1622 PP            14590 ****               0 ****  **** 
   1623 PP            14599 ****               0 ****  **** 
   1624 PP            14608 ****               0 ****  **** 
   1625 PP            14617 ****               0 ****  **** 
   1626 PP            14626 ****               0 ****  **** 
   1627 PP            14635 ****               0 ****  **** 
   1628 PP            14644 ****               0 ****  **** 
   1629 PP            14653 ****               0 ****  **** 
   1630 PP            14662 ****               0 ****  **** 
   1631 PP            14671 ****               0 ****  **** 
   1632 PP            14680 ****               0 ****  **** 
   1633 PP            14689 ****               0 ****  **** 
   1634 PP            14698 ****               0 ****  **** 
   1635 PP            14707 ****               0 ****  **** 
   1636 PP            14716 ****               0 ****  **** 
   1637 PP            14725 ****               0 ****  **** 
   1638 PP            14734 ****               0 ****  **** 
   1639 PP            14743 ****               0 ****  **** 
   1640 PP            14752 ****               0 ****  **** 
   1641 PP            14761 ****               0 ****  **** 
   1642 PP            14770 ****               0 ****  **** 
   1643 PP            14779 ****               0 ****  **** 
   1644 PP            14788 ****               0 ****  **** 
   1645 PP            14797 ****               0 ****  **** 
   1646 PP            14806 ****               0 ****  **** 
   1647 PP            14815 ****               0 ****  **** 
   1648 PP            14824 ****               0 ****  **** 
   1649 PP            14833 ****               0 ****  **** 
   1650 PP            14842 ****               0 ****  **** 
